
     RDKit          3D

  4  3  0  0  0  0  0  0  0  0999 V2000
  -12.8598   27.4677  -21.9279 O   0  0  0  0  0  0  0  0  0  0  0  0
  -12.3259   26.6581  -21.5380 C   0  0  0  0  0  0  0  0  0  0  0  0
  -12.4557   25.4731  -21.0632 C   0  0  0  0  0  0  0  0  0  0  0  0
  -10.9158   27.0400  -21.5827 O   0  0  0  0  0  0  0  0  0  0  0  0
  1  2  2  0
  2  3  1  0
  2  4  1  0
M  END
