
     RDKit          3D

  5  4  0  0  0  0  0  0  0  0999 V2000
  -10.8949   25.8616  -20.4839 F   0  0  0  0  0  0  0  0  0  0  0  0
  -10.4563   25.1740  -21.2450 C   0  0  0  0  0  0  0  0  0  0  0  0
   -9.4803   24.5013  -20.8941 F   0  0  0  0  0  0  0  0  0  0  0  0
  -11.1542   24.0662  -21.5877 F   0  0  0  0  0  0  0  0  0  0  0  0
  -10.0133   25.7532  -22.3448 F   0  0  0  0  0  0  0  0  0  0  0  0
  1  2  1  0
  2  3  1  0
  2  4  1  0
  2  5  1  0
M  END
