
     RDKit          3D

 22 21  0  0  0  0  0  0  0  0999 V2000
  -14.4726   28.0649  -22.4895 O   0  0  0  0  0  0  0  0  0  0  0  0
  -15.6299   28.8571  -22.4951 C   0  0  0  0  0  0  0  0  0  0  0  0
  -15.4737   30.2027  -22.5454 N   0  0  0  0  0  0  0  0  0  0  0  0
  -16.5924   31.0587  -22.6184 C   0  0  0  0  0  0  0  0  0  0  0  0
  -16.3898   32.0567  -23.4208 C   0  0  0  0  0  0  0  0  0  0  0  0
  -16.7604   28.1609  -22.6092 N   0  0  0  0  0  0  0  0  0  0  0  0
  -17.5659   32.9622  -23.6906 C   0  0  0  0  0  0  0  0  0  0  0  0
  -17.3856   34.0865  -24.4195 N   0  0  0  0  0  0  0  0  0  0  0  0
  -18.3200   35.1096  -24.4428 C   0  0  0  0  0  0  0  0  0  0  0  0
  -17.4709   31.1176  -21.7681 O   0  0  0  0  0  0  0  0  0  0  0  0
  -16.6056   34.0205  -25.6612 C   0  0  0  0  0  0  0  0  0  0  0  0
  -16.0856   35.3097  -25.8950 C   0  0  0  0  0  0  0  0  0  0  0  0
  -15.5590   35.4549  -27.2656 O   0  0  0  0  0  0  0  0  0  0  0  0
  -18.6828   35.7233  -23.1735 C   0  0  0  0  0  0  0  0  0  0  0  0
  -19.3565   36.6854  -23.0276 O   0  0  0  0  0  0  0  0  0  0  0  0
  -18.1215   35.0939  -22.0475 O   0  0  0  0  0  0  0  0  0  0  0  0
  -18.6802   35.0724  -20.5530 P   0  0  0  0  0  0  0  0  0  0  0  0
  -17.6401   35.0248  -19.5869 O   0  0  0  0  0  0  0  0  0  0  0  0
  -19.7284   36.0510  -20.3679 O   0  0  0  0  0  0  0  0  0  0  0  0
  -19.4431   33.6531  -20.5680 O   0  0  0  0  0  0  0  0  0  0  0  0
  -19.6398   32.6597  -19.5538 C   0  0  0  0  0  0  0  0  0  0  0  0
  -19.8637   31.4739  -20.1259 O   0  0  0  0  0  0  0  0  0  0  0  0
  1  2  2  0
  2  3  1  0
  3  4  1  0
  4  5  1  0
  2  6  1  0
  5  7  1  0
  7  8  1  0
  8  9  1  0
  4 10  2  0
  8 11  1  0
 11 12  1  0
 12 13  1  0
  9 14  1  0
 14 15  2  0
 14 16  1  0
 16 17  1  0
 17 18  1  0
 17 19  2  0
 17 20  1  0
 20 21  1  0
 21 22  1  0
M  END
