
     RDKit          3D

 22 21  0  0  0  0  0  0  0  0999 V2000
  -16.7605   36.4648  -19.7897 O   0  0  0  0  0  0  0  0  0  0  0  0
  -17.8551   36.9014  -20.6872 P   0  0  0  0  0  0  0  0  0  0  0  0
  -18.0988   35.8587  -21.7650 O   0  0  0  0  0  0  0  0  0  0  0  0
  -19.1365   36.8861  -19.7974 O   0  0  0  0  0  0  0  0  0  0  0  0
  -17.3190   37.9690  -21.4795 O   0  0  0  0  0  0  0  0  0  0  0  0
  -17.5951   35.7399  -23.1957 P   0  0  0  0  0  0  0  0  0  0  0  0
  -16.2024   35.6314  -23.1277 O   0  0  0  0  0  0  0  0  0  0  0  0
  -18.3680   34.3978  -23.6135 O   0  0  0  0  0  0  0  0  0  0  0  0
  -18.2877   36.6790  -24.1595 O   0  0  0  0  0  0  0  0  0  0  0  0
  -17.7423   33.2375  -24.0681 C   0  0  0  0  0  0  0  0  0  0  0  0
  -18.4025   32.1191  -23.6837 C   0  0  0  0  0  0  0  0  0  0  0  0
  -16.9150   33.3621  -25.1647 C   0  0  0  0  0  0  0  0  0  0  0  0
  -17.6199   30.9169  -23.8568 C   0  0  0  0  0  0  0  0  0  0  0  0
  -19.7641   31.7939  -24.1710 O   0  0  0  0  0  0  0  0  0  0  0  0
  -16.9137   30.6809  -22.7491 O   0  0  0  0  0  0  0  0  0  0  0  0
  -17.0335   34.1827  -26.2968 C   0  0  0  0  0  0  0  0  0  0  0  0
  -17.9009   33.8778  -27.1565 O   0  0  0  0  0  0  0  0  0  0  0  0
  -15.9534   34.9147  -26.6146 N   0  0  0  0  0  0  0  0  0  0  0  0
  -15.5815   30.1554  -22.6411 C   0  0  0  0  0  0  0  0  0  0  0  0
  -14.7003   30.7618  -23.1069 O   0  0  0  0  0  0  0  0  0  0  0  0
  -16.1517   35.7980  -27.7518 C   0  0  0  0  0  0  0  0  0  0  0  0
  -15.4822   29.2149  -21.5770 O   0  0  0  0  0  0  0  0  0  0  0  0
  1  2  1  0
  2  3  1  0
  2  4  1  0
  2  5  2  0
  3  6  1  0
  6  7  1  0
  6  8  1  0
  6  9  2  0
  8 10  1  0
 10 11  1  0
 10 12  2  3
 11 13  1  0
 11 14  1  0
 13 15  1  0
 12 16  1  0
 16 17  2  0
 16 18  1  0
 15 19  1  0
 19 20  2  0
 18 21  1  0
 19 22  1  0
M  END
