
     RDKit          3D

 22 24  0  0  0  0  0  0  0  0999 V2000
  -12.8325   27.1646  -21.9545 C   0  0  0  0  0  0  0  0  0  0  0  0
  -12.4521   26.4852  -20.9820 C   0  0  0  0  0  0  0  0  0  0  0  0
  -11.9832   25.4505  -20.0665 C   0  0  0  0  0  0  0  0  0  0  0  0
  -13.2980   27.9505  -22.8442 C   0  0  0  0  0  0  0  0  0  0  0  0
  -14.5213   27.4272  -23.3176 C   0  0  0  0  0  0  0  0  0  0  0  0
  -13.8521   29.2948  -22.3536 C   0  0  0  0  0  0  0  0  0  0  0  0
  -15.1218   29.6356  -22.9104 C   0  0  0  0  0  0  0  0  0  0  0  0
  -15.8482   30.7243  -22.2890 C   0  0  0  0  0  0  0  0  0  0  0  0
  -15.7027   28.2535  -22.8235 C   0  0  0  0  0  0  0  0  0  0  0  0
  -16.7646   31.3173  -23.1692 C   0  0  0  0  0  0  0  0  0  0  0  0
  -10.6226   25.1377  -20.3860 C   0  0  0  0  0  0  0  0  0  0  0  0
   -9.9695   24.3478  -19.8561 C   0  0  0  0  0  0  0  0  0  0  0  0
  -10.0012   25.9115  -21.3867 C   0  0  0  0  0  0  0  0  0  0  0  0
  -16.3620   31.9934  -24.1425 O   0  0  0  0  0  0  0  0  0  0  0  0
  -18.0524   31.0629  -23.0196 N   0  0  0  0  0  0  0  0  0  0  0  0
  -19.0231   31.5289  -23.9197 C   0  0  0  0  0  0  0  0  0  0  0  0
  -10.3591   23.6075  -18.8404 C   0  0  0  0  0  0  0  0  0  0  0  0
  -11.6906   23.2820  -18.7949 C   0  0  0  0  0  0  0  0  0  0  0  0
  -12.5743   24.3439  -19.8896 C   0  0  0  0  0  0  0  0  0  0  0  0
   -8.9832   24.0705  -20.1729 C   0  0  0  0  0  0  0  0  0  0  0  0
   -8.7651   25.1601  -21.5272 C   0  0  0  0  0  0  0  0  0  0  0  0
   -9.6881   23.1729  -17.8601 O   0  0  0  0  0  0  0  0  0  0  0  0
  1  2  3  0
  2  3  1  0
  1  4  1  0
  4  5  1  0
  4  6  1  0
  6  7  1  0
  7  8  1  0
  5  9  1  0
  7  9  1  0
  8 10  1  0
  3 11  1  0
 11 12  1  0
 11 13  2  0
 10 14  2  0
 10 15  1  0
 15 16  1  0
 12 17  1  0
 17 18  1  0
  3 19  1  0
 18 19  1  0
 12 20  2  0
 13 21  1  0
 20 21  1  0
 17 22  2  0
M  END
