
     RDKit          3D

  8  8  0  0  0  0  0  0  0  0999 V2000
  -12.8325   27.1646  -21.9545 O   0  0  0  0  0  0  0  0  0  0  0  0
  -14.1229   27.2115  -21.5617 C   0  0  0  0  0  0  0  0  0  0  0  0
  -14.7992   26.7729  -20.8031 C   0  0  0  0  0  0  0  0  0  0  0  0
  -14.6770   28.0473  -22.8344 C   0  0  0  0  0  0  0  0  0  0  0  0
  -16.1891   27.0698  -20.7223 C   0  0  0  0  0  0  0  0  0  0  0  0
  -16.7831   27.8042  -21.6736 C   0  0  0  0  0  0  0  0  0  0  0  0
  -12.1344   26.1951  -21.0548 C   0  0  0  0  0  0  0  0  0  0  0  0
  -16.1649   28.3110  -22.5361 C   0  0  0  0  0  0  0  0  0  0  0  0
  1  2  1  0
  2  3  2  0
  2  4  1  0
  3  5  1  0
  5  6  2  0
  1  7  1  0
  4  8  1  0
  6  8  1  0
M  END
