
     RDKit          3D

  8  8  0  0  0  0  0  0  0  0999 V2000
  -12.9075   26.8098  -21.2317 C   0  0  0  0  0  0  0  0  0  0  0  0
  -13.9946   27.1950  -21.7690 C   0  0  0  0  0  0  0  0  0  0  0  0
  -11.9724   27.4547  -21.1407 C   0  0  0  0  0  0  0  0  0  0  0  0
  -12.7548   25.7390  -20.7593 C   0  0  0  0  0  0  0  0  0  0  0  0
  -14.2493   27.3092  -22.9043 O   0  0  0  0  0  0  0  0  0  0  0  0
  -11.4173   25.3209  -20.3063 C   0  0  0  0  0  0  0  0  0  0  0  0
  -10.8099   26.6633  -20.4209 C   0  0  0  0  0  0  0  0  0  0  0  0
  -15.1197   27.5184  -20.9679 C   0  0  0  0  0  0  0  0  0  0  0  0
  1  2  1  0
  1  3  1  0
  1  4  2  0
  2  5  2  0
  4  6  1  0
  3  7  1  0
  6  7  2  0
  2  8  1  0
M  END
