
     RDKit          3D

  9  8  0  0  0  0  0  0  0  0999 V2000
  -22.2949   34.3419  -21.4299 O   0  0  0  0  0  0  0  0  0  0  0  0
  -20.9410   34.1531  -21.1207 C   0  0  0  0  0  0  0  0  0  0  0  0
  -19.9452   35.0291  -21.8136 C   0  0  0  0  0  0  0  0  0  0  0  0
  -20.5636   33.3278  -20.1802 O   0  0  0  0  0  0  0  0  0  0  0  0
  -18.6048   34.6538  -21.4972 O   0  0  0  0  0  0  0  0  0  0  0  0
  -17.7017   35.8074  -20.7874 P   0  0  0  0  0  0  0  0  0  0  0  0
  -17.1347   35.4831  -19.5877 O   0  0  0  0  0  0  0  0  0  0  0  0
  -16.5021   35.9985  -21.7673 O   0  0  0  0  0  0  0  0  0  0  0  0
  -18.7175   37.0248  -20.7608 O   0  0  0  0  0  0  0  0  0  0  0  0
  1  2  2  0
  2  3  1  0
  2  4  1  0
  3  5  1  0
  5  6  1  0
  6  7  1  0
  6  8  2  0
  6  9  1  0
M  END
