
     RDKit          3D

  9  9  0  0  0  0  0  0  0  0999 V2000
  -12.7418   26.8530  -22.2493 C   0  0  0  0  0  0  0  0  0  0  0  0
  -12.1725   26.2459  -21.3062 C   0  0  0  0  0  0  0  0  0  0  0  0
  -14.0838   26.9532  -22.1587 C   0  0  0  0  0  0  0  0  0  0  0  0
  -11.3375   25.7248  -21.1429 N   0  0  0  0  0  0  0  0  0  0  0  0
  -14.9307   26.2309  -21.3409 C   0  0  0  0  0  0  0  0  0  0  0  0
  -14.8385   27.6637  -23.3838 C   0  0  0  0  0  0  0  0  0  0  0  0
  -15.9852   28.2619  -22.8301 C   0  0  0  0  0  0  0  0  0  0  0  0
  -16.2175   26.5740  -21.0593 C   0  0  0  0  0  0  0  0  0  0  0  0
  -16.8641   27.4192  -21.7843 C   0  0  0  0  0  0  0  0  0  0  0  0
  1  2  1  0
  1  3  2  3
  2  4  3  0
  3  5  1  0
  3  6  1  0
  6  7  2  0
  5  8  2  0
  7  9  1  0
  8  9  1  0
M  END
