
     RDKit          3D

  5  4  0  0  0  0  0  0  0  0999 V2000
  -12.8325   27.1646  -21.9545 O   0  0  0  0  0  0  0  0  0  0  0  0
  -12.3360   26.4862  -21.1848 C   0  0  0  0  0  0  0  0  0  0  0  0
  -12.3675   25.2645  -20.7965 C   0  0  0  0  0  0  0  0  0  0  0  0
  -11.3168   27.0949  -20.5389 N   0  0  0  0  0  0  0  0  0  0  0  0
  -11.3591   28.3369  -20.0829 O   0  0  0  0  0  0  0  0  0  0  0  0
  1  2  2  0
  2  3  1  0
  2  4  1  0
  4  5  1  0
M  END
