
     RDKit          3D

 10 10  0  0  0  0  0  0  0  0999 V2000
  -10.9712   35.7063  -29.3155 C   0  0  0  0  0  0  0  0  0  0  0  0
  -10.8868   35.1400  -30.3414 C   0  0  0  0  0  0  0  0  0  0  0  0
  -10.9400   35.1611  -28.0742 C   0  0  0  0  0  0  0  0  0  0  0  0
  -11.6045   34.0094  -30.5104 C   0  0  0  0  0  0  0  0  0  0  0  0
  -12.4177   34.0218  -31.5578 C   0  0  0  0  0  0  0  0  0  0  0  0
  -11.1262   37.1111  -29.3530 C   0  0  0  0  0  0  0  0  0  0  0  0
  -12.8205   33.0997  -32.2594 O   0  0  0  0  0  0  0  0  0  0  0  0
  -11.4939   35.8908  -26.9484 C   0  0  0  0  0  0  0  0  0  0  0  0
  -11.8492   37.1725  -27.0568 C   0  0  0  0  0  0  0  0  0  0  0  0
  -11.6916   37.7857  -28.2720 C   0  0  0  0  0  0  0  0  0  0  0  0
  1  2  1  0
  1  3  1  0
  2  4  1  0
  4  5  1  0
  1  6  2  0
  5  7  1  0
  3  8  2  0
  8  9  1  0
  6 10  1  0
  9 10  2  0
M  END
