
     RDKit          3D

 11 10  0  0  0  0  0  0  0  0999 V2000
  -12.7418   26.8530  -22.2493 C   0  0  0  0  0  0  0  0  0  0  0  0
  -12.1725   26.2459  -21.3062 C   0  0  0  0  0  0  0  0  0  0  0  0
  -14.0459   27.0586  -22.1941 C   0  0  0  0  0  0  0  0  0  0  0  0
  -14.6405   28.2227  -22.8598 C   0  0  0  0  0  0  0  0  0  0  0  0
  -10.6443   26.1751  -21.1363 C   0  0  0  0  0  0  0  0  0  0  0  0
  -10.1565   25.0469  -20.5242 C   0  0  0  0  0  0  0  0  0  0  0  0
  -15.7111   28.8902  -22.1115 C   0  0  0  0  0  0  0  0  0  0  0  0
   -9.0591   24.9846  -20.2172 O   0  0  0  0  0  0  0  0  0  0  0  0
  -16.8045   28.4687  -22.1552 O   0  0  0  0  0  0  0  0  0  0  0  0
  -10.7525   24.0145  -20.8518 O   0  0  0  0  0  0  0  0  0  0  0  0
  -15.5057   30.1546  -21.6449 N   0  0  0  0  0  0  0  0  0  0  0  0
  1  2  2  3
  1  3  1  0
  3  4  1  0
  2  5  1  0
  5  6  1  0
  4  7  1  0
  6  8  1  0
  7  9  2  0
  6 10  2  0
  7 11  1  0
M  END
