
     RDKit          3D

 11 12  0  0  0  0  0  0  0  0999 V2000
  -12.7418   26.8530  -22.2493 C   0  0  0  0  0  0  0  0  0  0  0  0
  -12.1725   26.2459  -21.3062 C   0  0  0  0  0  0  0  0  0  0  0  0
  -11.2988   25.7512  -21.0613 N   0  0  0  0  0  0  0  0  0  0  0  0
  -12.3324   27.5961  -23.1316 C   0  0  0  0  0  0  0  0  0  0  0  0
  -10.9838   27.6895  -23.4544 C   0  0  0  0  0  0  0  0  0  0  0  0
  -13.1474   28.3411  -23.8497 C   0  0  0  0  0  0  0  0  0  0  0  0
  -13.9025   29.1373  -23.1104 C   0  0  0  0  0  0  0  0  0  0  0  0
  -12.2954   28.9606  -24.5462 C   0  0  0  0  0  0  0  0  0  0  0  0
  -10.9827   28.3224  -24.5842 C   0  0  0  0  0  0  0  0  0  0  0  0
  -13.7108   30.3156  -23.1209 C   0  0  0  0  0  0  0  0  0  0  0  0
  -12.5720   30.5835  -23.7822 C   0  0  0  0  0  0  0  0  0  0  0  0
  1  2  1  0
  2  3  3  0
  1  4  2  3
  4  5  1  0
  4  6  1  0
  6  7  1  0
  6  8  1  0
  5  9  1  0
  8  9  1  0
  7 10  1  0
  8 11  1  0
 10 11  1  0
M  END
