
     RDKit          3D

 13 12  0  0  0  0  0  0  0  0999 V2000
  -20.5076   33.5357  -20.0287 O   0  0  0  0  0  0  0  0  0  0  0  0
  -19.3795   33.1251  -20.6534 P   0  0  0  0  0  0  0  0  0  0  0  0
  -18.6046   34.2504  -20.7648 O   0  0  0  0  0  0  0  0  0  0  0  0
  -18.9344   35.7918  -20.9087 P   0  0  0  0  0  0  0  0  0  0  0  0
  -19.9247   32.7013  -22.1664 O   0  0  0  0  0  0  0  0  0  0  0  0
  -17.6138   36.5203  -20.9191 O   0  0  0  0  0  0  0  0  0  0  0  0
  -18.8357   31.8651  -20.0468 O   0  0  0  0  0  0  0  0  0  0  0  0
  -19.4464   35.8785  -22.3542 O   0  0  0  0  0  0  0  0  0  0  0  0
  -17.1141   37.7907  -21.6819 P   0  0  0  0  0  0  0  0  0  0  0  0
  -19.8463   36.0149  -19.8406 O   0  0  0  0  0  0  0  0  0  0  0  0
  -16.1698   37.1137  -22.6477 O   0  0  0  0  0  0  0  0  0  0  0  0
  -18.2804   38.2611  -22.4279 O   0  0  0  0  0  0  0  0  0  0  0  0
  -16.5428   38.7941  -20.8605 O   0  0  0  0  0  0  0  0  0  0  0  0
  1  2  1  0
  2  3  1  0
  3  4  1  0
  2  5  1  0
  4  6  1  0
  2  7  2  0
  4  8  2  0
  6  9  1  0
  4 10  1  0
  9 11  2  0
  9 12  1  0
  9 13  1  0
M  END
