
     RDKit          3D

  5  4  0  0  0  0  0  0  0  0999 V2000
  -14.2349   27.4615  -22.1729 O   0  0  0  0  0  0  0  0  0  0  0  0
  -15.4826   28.2286  -22.0792 C   0  0  0  0  0  0  0  0  0  0  0  0
  -16.5562   27.7728  -22.0114 O   0  0  0  0  0  0  0  0  0  0  0  0
  -15.3262   29.7567  -22.2624 C   0  0  0  0  0  0  0  0  0  0  0  0
  -14.5756   30.3252  -23.0513 C   0  0  0  0  0  0  0  0  0  0  0  0
  1  2  2  0
  2  3  1  0
  2  4  1  0
  4  5  2  0
M  END
