
     RDKit          3D

 13 12  0  0  0  0  0  0  0  0999 V2000
  -12.8598   27.4677  -21.9279 C   0  0  0  0  0  0  0  0  0  0  0  0
  -14.4087   27.5113  -21.8895 C   0  0  0  0  0  0  0  0  0  0  0  0
  -12.3176   28.0350  -22.4498 O   0  0  0  0  0  0  0  0  0  0  0  0
  -14.8152   28.9176  -22.6414 C   0  0  0  0  0  0  0  0  0  0  0  0
  -12.5143   26.5205  -20.9389 C   0  0  0  0  0  0  0  0  0  0  0  0
  -10.9844   26.4841  -20.8232 C   0  0  0  0  0  0  0  0  0  0  0  0
  -14.1083   29.8604  -22.6290 O   0  0  0  0  0  0  0  0  0  0  0  0
  -16.0684   29.2437  -21.8617 C   0  0  0  0  0  0  0  0  0  0  0  0
  -10.2269   27.3541  -20.5557 O   0  0  0  0  0  0  0  0  0  0  0  0
  -10.3656   25.2308  -20.7693 C   0  0  0  0  0  0  0  0  0  0  0  0
  -16.9807   28.5255  -21.8963 O   0  0  0  0  0  0  0  0  0  0  0  0
   -9.1260   24.9057  -20.8644 C   0  0  0  0  0  0  0  0  0  0  0  0
  -16.1155   30.2121  -21.0943 O   0  0  0  0  0  0  0  0  0  0  0  0
  1  2  1  0
  1  3  2  0
  2  4  1  0
  1  5  1  0
  5  6  1  0
  4  7  1  0
  4  8  1  0
  6  9  1  0
  6 10  2  3
  8 11  2  0
 10 12  1  0
  8 13  1  0
M  END
