
     RDKit          3D

 13 13  0  0  0  0  0  0  0  0999 V2000
  -10.9712   35.7063  -29.3155 C   0  0  0  0  0  0  0  0  0  0  0  0
  -10.8868   35.1400  -30.3414 C   0  0  0  0  0  0  0  0  0  0  0  0
  -10.9400   35.1611  -28.0742 C   0  0  0  0  0  0  0  0  0  0  0  0
  -11.6045   34.0094  -30.5104 C   0  0  0  0  0  0  0  0  0  0  0  0
  -11.6184   35.7605  -26.9253 C   0  0  0  0  0  0  0  0  0  0  0  0
  -12.3748   34.0583  -31.7994 C   0  0  0  0  0  0  0  0  0  0  0  0
  -11.2472   37.1023  -29.3148 C   0  0  0  0  0  0  0  0  0  0  0  0
  -12.1996   36.8274  -27.0547 C   0  0  0  0  0  0  0  0  0  0  0  0
  -12.3780   34.9990  -32.4930 F   0  0  0  0  0  0  0  0  0  0  0  0
  -13.3738   33.3943  -32.1450 F   0  0  0  0  0  0  0  0  0  0  0  0
  -11.3796   37.8117  -30.5065 C   0  0  0  0  0  0  0  0  0  0  0  0
  -12.8577   37.2999  -26.1493 C   0  0  0  0  0  0  0  0  0  0  0  0
  -12.1416   37.5277  -28.1631 C   0  0  0  0  0  0  0  0  0  0  0  0
  1  2  1  0
  1  3  1  0
  2  4  1  0
  3  5  2  0
  4  6  1  0
  1  7  2  0
  5  8  1  0
  6  9  1  0
  6 10  1  0
  7 11  1  0
  8 12  1  0
  7 13  1  0
  8 13  2  0
M  END
