
     RDKit          3D

 14 15  0  0  0  0  0  0  0  0999 V2000
  -12.7418   26.8530  -22.2493 C   0  0  0  0  0  0  0  0  0  0  0  0
  -12.1725   26.2459  -21.3062 C   0  0  0  0  0  0  0  0  0  0  0  0
  -10.7667   26.3242  -20.9914 C   0  0  0  0  0  0  0  0  0  0  0  0
  -12.0580   27.8269  -22.8324 C   0  0  0  0  0  0  0  0  0  0  0  0
  -10.1334   25.4212  -20.2085 C   0  0  0  0  0  0  0  0  0  0  0  0
  -10.2490   27.3909  -21.5443 C   0  0  0  0  0  0  0  0  0  0  0  0
  -10.7695   28.1976  -22.4102 C   0  0  0  0  0  0  0  0  0  0  0  0
   -9.2706   24.6517  -20.6578 C   0  0  0  0  0  0  0  0  0  0  0  0
  -12.5898   28.5197  -23.4841 C   0  0  0  0  0  0  0  0  0  0  0  0
  -13.9053   28.8576  -23.3276 C   0  0  0  0  0  0  0  0  0  0  0  0
  -14.6936   27.8163  -22.9605 C   0  0  0  0  0  0  0  0  0  0  0  0
  -14.0655   26.7502  -22.3688 C   0  0  0  0  0  0  0  0  0  0  0  0
  -15.3760   27.1996  -23.8232 O   0  0  0  0  0  0  0  0  0  0  0  0
  -15.5397   28.1755  -21.8621 C   0  0  0  0  0  0  0  0  0  0  0  0
  1  2  2  0
  2  3  1  0
  1  4  1  0
  3  5  1  0
  3  6  2  0
  4  7  1  0
  6  7  1  0
  5  8  2  0
  4  9  2  0
  9 10  1  0
 10 11  1  0
  1 12  1  0
 11 12  1  0
 11 13  1  0
 11 14  1  0
M  END
