
     RDKit          3D

 15 16  0  0  0  0  0  0  0  0999 V2000
  -12.8325   27.1646  -21.9545 O   0  0  0  0  0  0  0  0  0  0  0  0
  -14.1229   27.2115  -21.5617 C   0  0  0  0  0  0  0  0  0  0  0  0
  -14.7992   26.7729  -20.8031 C   0  0  0  0  0  0  0  0  0  0  0  0
  -12.0598   26.5941  -20.8314 C   0  0  0  0  0  0  0  0  0  0  0  0
  -16.0941   27.1258  -20.5747 C   0  0  0  0  0  0  0  0  0  0  0  0
  -16.5045   27.7003  -21.2274 C   0  0  0  0  0  0  0  0  0  0  0  0
  -14.7663   28.3889  -22.4390 C   0  0  0  0  0  0  0  0  0  0  0  0
  -16.0383   28.6067  -22.2298 C   0  0  0  0  0  0  0  0  0  0  0  0
  -16.7394   29.5383  -23.0171 C   0  0  0  0  0  0  0  0  0  0  0  0
  -17.9570   29.9707  -22.7886 C   0  0  0  0  0  0  0  0  0  0  0  0
  -16.0230   30.9394  -22.8274 C   0  0  0  0  0  0  0  0  0  0  0  0
  -18.0700   31.2292  -22.7532 C   0  0  0  0  0  0  0  0  0  0  0  0
  -15.0593   31.0984  -23.8670 O   0  0  0  0  0  0  0  0  0  0  0  0
  -16.9778   31.8820  -22.7267 N   0  0  0  0  0  0  0  0  0  0  0  0
  -19.2437   31.9215  -22.5602 O   0  0  0  0  0  0  0  0  0  0  0  0
  1  2  1  0
  2  3  2  0
  1  4  1  0
  3  5  1  0
  5  6  2  0
  2  7  1  0
  6  8  1  0
  7  8  2  0
  8  9  1  0
  9 10  1  0
  9 11  1  0
 10 12  1  0
 11 13  1  0
 11 14  1  0
 12 14  1  0
 12 15  2  0
M  END
