
     RDKit          3D

 15 16  0  0  0  0  0  0  0  0999 V2000
  -12.7418   26.8530  -22.2493 C   0  0  0  0  0  0  0  0  0  0  0  0
  -14.0125   27.0161  -22.1954 C   0  0  0  0  0  0  0  0  0  0  0  0
  -12.0431   26.1226  -21.2781 C   0  0  0  0  0  0  0  0  0  0  0  0
  -14.9876   26.4119  -21.4386 C   0  0  0  0  0  0  0  0  0  0  0  0
  -14.4771   25.5067  -20.6490 C   0  0  0  0  0  0  0  0  0  0  0  0
  -13.0485   25.2439  -20.4849 C   0  0  0  0  0  0  0  0  0  0  0  0
  -10.8558   25.8110  -20.9578 C   0  0  0  0  0  0  0  0  0  0  0  0
  -10.2894   26.7664  -20.3218 C   0  0  0  0  0  0  0  0  0  0  0  0
  -16.2640   26.5065  -21.5133 F   0  0  0  0  0  0  0  0  0  0  0  0
  -10.3326   24.7161  -21.2177 C   0  0  0  0  0  0  0  0  0  0  0  0
   -8.9994   24.4924  -20.8630 C   0  0  0  0  0  0  0  0  0  0  0  0
  -10.6983   28.0300  -19.9322 C   0  0  0  0  0  0  0  0  0  0  0  0
  -10.4451   28.4365  -18.7879 O   0  0  0  0  0  0  0  0  0  0  0  0
   -9.1411   26.4573  -20.0126 C   0  0  0  0  0  0  0  0  0  0  0  0
   -8.5886   25.5494  -20.2834 C   0  0  0  0  0  0  0  0  0  0  0  0
  1  2  2  0
  1  3  1  0
  2  4  1  0
  4  5  2  0
  3  6  2  0
  5  6  1  0
  3  7  1  0
  7  8  1  0
  4  9  1  0
  7 10  2  0
 10 11  1  0
  8 12  1  0
 12 13  1  0
  8 14  2  0
 11 15  2  0
 14 15  1  0
M  END
