
     RDKit          3D

 17 16  0  0  0  0  0  0  0  0999 V2000
  -16.5786   36.2950  -19.6813 O   0  0  0  0  0  0  0  0  0  0  0  0
  -17.5426   36.8642  -20.5584 P   0  0  0  0  0  0  0  0  0  0  0  0
  -17.9112   36.0230  -21.6964 O   0  0  0  0  0  0  0  0  0  0  0  0
  -18.7666   37.2942  -19.7794 O   0  0  0  0  0  0  0  0  0  0  0  0
  -16.9017   38.1806  -21.1108 O   0  0  0  0  0  0  0  0  0  0  0  0
  -17.6150   36.0770  -23.1694 P   0  0  0  0  0  0  0  0  0  0  0  0
  -16.2364   35.8860  -23.3541 O   0  0  0  0  0  0  0  0  0  0  0  0
  -18.4168   34.6907  -23.4896 O   0  0  0  0  0  0  0  0  0  0  0  0
  -18.4229   37.0314  -24.0116 O   0  0  0  0  0  0  0  0  0  0  0  0
  -17.8049   33.4212  -23.6682 C   0  0  0  0  0  0  0  0  0  0  0  0
  -18.3040   32.3055  -22.9176 C   0  0  0  0  0  0  0  0  0  0  0  0
  -18.3293   31.2113  -23.3922 O   0  0  0  0  0  0  0  0  0  0  0  0
  -18.5454   32.3506  -21.5550 O   0  0  0  0  0  0  0  0  0  0  0  0
  -19.8882   32.0297  -20.8904 C   0  0  0  0  0  0  0  0  0  0  0  0
  -20.0895   33.0507  -19.8513 O   0  0  0  0  0  0  0  0  0  0  0  0
  -17.0340   33.1630  -24.8058 C   0  0  0  0  0  0  0  0  0  0  0  0
  -15.7012   33.1279  -24.5455 O   0  0  0  0  0  0  0  0  0  0  0  0
  1  2  1  0
  2  3  1  0
  2  4  2  0
  2  5  1  0
  3  6  1  0
  6  7  1  0
  6  8  1  0
  6  9  2  0
  8 10  1  0
 10 11  1  0
 11 12  2  0
 11 13  1  0
 13 14  1  0
 14 15  1  0
 10 16  1  0
 16 17  1  0
M  END
