
     RDKit          3D

 17 16  0  0  0  0  0  0  0  0999 V2000
  -12.8068   26.9228  -21.4033 C   0  0  0  0  0  0  0  0  0  0  0  0
  -13.9640   27.2030  -21.7243 C   0  0  0  0  0  0  0  0  0  0  0  0
  -11.5626   26.4440  -20.9809 C   0  0  0  0  0  0  0  0  0  0  0  0
  -11.4503   25.1901  -20.9369 C   0  0  0  0  0  0  0  0  0  0  0  0
  -15.1811   27.8366  -22.2375 C   0  0  0  0  0  0  0  0  0  0  0  0
  -10.2654   24.5340  -20.6271 C   0  0  0  0  0  0  0  0  0  0  0  0
  -15.2157   29.2480  -22.3219 C   0  0  0  0  0  0  0  0  0  0  0  0
   -9.2147   24.2406  -20.5903 N   0  0  0  0  0  0  0  0  0  0  0  0
  -16.4759   29.8067  -22.4762 C   0  0  0  0  0  0  0  0  0  0  0  0
  -16.5740   31.1633  -23.0222 C   0  0  0  0  0  0  0  0  0  0  0  0
  -15.9968   31.3748  -24.2754 O   0  0  0  0  0  0  0  0  0  0  0  0
  -17.4824   32.0791  -22.5689 C   0  0  0  0  0  0  0  0  0  0  0  0
  -18.5317   31.4907  -21.7851 O   0  0  0  0  0  0  0  0  0  0  0  0
  -19.3704   32.3988  -20.7057 P   0  0  0  0  0  0  0  0  0  0  0  0
  -20.1179   33.4374  -21.4618 O   0  0  0  0  0  0  0  0  0  0  0  0
  -20.4201   31.2727  -20.1796 O   0  0  0  0  0  0  0  0  0  0  0  0
  -18.5250   32.7915  -19.5729 O   0  0  0  0  0  0  0  0  0  0  0  0
  1  2  3  0
  1  3  1  0
  3  4  2  3
  2  5  1  0
  4  6  1  0
  5  7  1  0
  6  8  3  0
  7  9  1  0
  9 10  1  0
 10 11  1  0
 10 12  1  0
 12 13  1  0
 13 14  1  0
 14 15  1  0
 14 16  2  0
 14 17  1  0
M  END
