
     RDKit          3D

 18 17  0  0  0  0  0  0  0  0999 V2000
  -17.8216   36.2648  -19.6566 O   0  0  0  0  0  0  0  0  0  0  0  0
  -17.0457   36.5117  -20.6826 P   0  0  0  0  0  0  0  0  0  0  0  0
  -15.6933   36.5762  -20.4519 O   0  0  0  0  0  0  0  0  0  0  0  0
  -17.5922   37.9055  -21.2148 O   0  0  0  0  0  0  0  0  0  0  0  0
  -17.4308   35.5924  -21.9042 O   0  0  0  0  0  0  0  0  0  0  0  0
  -17.5375   35.9406  -23.3840 P   0  0  0  0  0  0  0  0  0  0  0  0
  -18.3497   36.8785  -23.6877 O   0  0  0  0  0  0  0  0  0  0  0  0
  -16.0431   36.2816  -23.7878 O   0  0  0  0  0  0  0  0  0  0  0  0
  -17.9680   34.5006  -23.9066 O   0  0  0  0  0  0  0  0  0  0  0  0
  -17.1501   33.3103  -24.2517 P   0  0  0  0  0  0  0  0  0  0  0  0
  -17.8681   32.0612  -23.6996 O   0  0  0  0  0  0  0  0  0  0  0  0
  -18.0650   31.3523  -22.5110 C   0  0  0  0  0  0  0  0  0  0  0  0
  -19.3531   31.3611  -22.0931 C   0  0  0  0  0  0  0  0  0  0  0  0
  -19.4786   32.2824  -20.7893 C   0  0  0  0  0  0  0  0  0  0  0  0
  -19.8215   31.8930  -19.7389 O   0  0  0  0  0  0  0  0  0  0  0  0
  -16.9437   33.2253  -25.7847 O   0  0  0  0  0  0  0  0  0  0  0  0
  -15.7008   33.4463  -23.7365 O   0  0  0  0  0  0  0  0  0  0  0  0
  -19.8628   33.6284  -21.0701 C   0  0  0  0  0  0  0  0  0  0  0  0
  1  2  1  0
  2  3  1  0
  2  4  2  0
  2  5  1  0
  5  6  1  0
  6  7  2  0
  6  8  1  0
  6  9  1  0
  9 10  1  0
 10 11  1  0
 11 12  1  0
 12 13  1  0
 13 14  1  0
 14 15  1  0
 10 16  2  0
 10 17  1  0
 14 18  2  0
M  END
