
     RDKit          3D

 18 18  0  0  0  0  0  0  0  0999 V2000
  -14.4726   28.0649  -22.4895 O   0  0  0  0  0  0  0  0  0  0  0  0
  -15.6299   28.8571  -22.4951 C   0  0  0  0  0  0  0  0  0  0  0  0
  -15.4737   30.2027  -22.5454 N   0  0  0  0  0  0  0  0  0  0  0  0
  -16.5924   31.0587  -22.6184 C   0  0  0  0  0  0  0  0  0  0  0  0
  -16.3898   32.0567  -23.4208 C   0  0  0  0  0  0  0  0  0  0  0  0
  -17.7405   30.8339  -22.0007 C   0  0  0  0  0  0  0  0  0  0  0  0
  -17.4189   33.0537  -23.7065 C   0  0  0  0  0  0  0  0  0  0  0  0
  -16.6589   28.2108  -21.7673 O   0  0  0  0  0  0  0  0  0  0  0  0
  -18.7964   31.8457  -22.2682 C   0  0  0  0  0  0  0  0  0  0  0  0
  -20.0649   31.6730  -21.5867 O   0  0  0  0  0  0  0  0  0  0  0  0
  -18.6009   32.9425  -23.0708 C   0  0  0  0  0  0  0  0  0  0  0  0
  -20.3272   32.6856  -20.4772 P   0  0  0  0  0  0  0  0  0  0  0  0
  -17.0615   34.3648  -24.6665 S   0  0  0  0  0  0  0  0  0  0  0  0
  -21.2109   33.6764  -20.9383 O   0  0  0  0  0  0  0  0  0  0  0  0
  -16.8030   35.5025  -24.0524 N   0  0  0  0  0  0  0  0  0  0  0  0
  -17.2458   36.6503  -24.4098 O   0  0  0  0  0  0  0  0  0  0  0  0
  -18.8698   33.4159  -20.2119 O   0  0  0  0  0  0  0  0  0  0  0  0
  -20.3402   31.8769  -19.1791 O   0  0  0  0  0  0  0  0  0  0  0  0
  1  2  2  0
  2  3  1  0
  3  4  1  0
  4  5  1  0
  4  6  2  0
  5  7  2  0
  2  8  1  0
  6  9  1  0
  9 10  1  0
  7 11  1  0
  9 11  2  0
 10 12  1  0
  7 13  1  0
 12 14  2  0
 13 15  2  3
 15 16  1  0
 12 17  1  0
 12 18  1  0
M  END
