
     RDKit          3D

 18 18  0  0  0  0  0  0  0  0999 V2000
  -16.1764   36.1893  -20.2039 O   0  0  0  0  0  0  0  0  0  0  0  0
  -17.5211   36.7767  -20.4552 P   0  0  0  0  0  0  0  0  0  0  0  0
  -17.4740   38.0673  -20.8933 O   0  0  0  0  0  0  0  0  0  0  0  0
  -18.1792   35.9337  -21.6569 O   0  0  0  0  0  0  0  0  0  0  0  0
  -18.3745   36.5167  -19.2062 O   0  0  0  0  0  0  0  0  0  0  0  0
  -17.7492   36.2270  -23.2194 P   0  0  0  0  0  0  0  0  0  0  0  0
  -18.1666   37.2366  -23.7442 O   0  0  0  0  0  0  0  0  0  0  0  0
  -16.1601   36.2098  -23.2170 O   0  0  0  0  0  0  0  0  0  0  0  0
  -18.2259   34.8931  -23.8843 O   0  0  0  0  0  0  0  0  0  0  0  0
  -17.3155   33.8806  -24.5167 C   0  0  0  0  0  0  0  0  0  0  0  0
  -17.4789   33.9101  -25.8753 C   0  0  0  0  0  0  0  0  0  0  0  0
  -17.4418   32.6132  -26.3677 C   0  0  0  0  0  0  0  0  0  0  0  0
  -17.3275   32.5725  -23.9733 C   0  0  0  0  0  0  0  0  0  0  0  0
  -16.4215   34.8149  -26.5183 C   0  0  0  0  0  0  0  0  0  0  0  0
  -16.4758   34.8253  -27.8711 C   0  0  0  0  0  0  0  0  0  0  0  0
  -17.6517   31.7958  -25.1341 O   0  0  0  0  0  0  0  0  0  0  0  0
  -18.0689   32.0213  -22.8655 C   0  0  0  0  0  0  0  0  0  0  0  0
  -17.9187   30.8165  -22.5397 O   0  0  0  0  0  0  0  0  0  0  0  0
  1  2  1  0
  2  3  2  0
  2  4  1  0
  2  5  1  0
  4  6  1  0
  6  7  1  0
  6  8  2  0
  6  9  1  0
  9 10  1  0
 10 11  1  0
 11 12  1  0
 10 13  1  0
 11 14  1  0
 14 15  1  0
 12 16  1  0
 13 16  1  0
 13 17  1  0
 17 18  1  0
M  END
