
     RDKit          3D

 18 18  0  0  0  0  0  0  0  0999 V2000
  -16.5330   36.4167  -19.7044 O   0  0  0  0  0  0  0  0  0  0  0  0
  -17.5659   36.8740  -20.5901 P   0  0  0  0  0  0  0  0  0  0  0  0
  -17.8577   35.9571  -21.6801 O   0  0  0  0  0  0  0  0  0  0  0  0
  -17.1585   38.2282  -21.1739 O   0  0  0  0  0  0  0  0  0  0  0  0
  -17.3725   35.8953  -23.0585 P   0  0  0  0  0  0  0  0  0  0  0  0
  -17.9169   34.7441  -23.8753 O   0  0  0  0  0  0  0  0  0  0  0  0
  -18.9614   37.1154  -19.7609 O   0  0  0  0  0  0  0  0  0  0  0  0
  -17.4946   34.3467  -25.2412 C   0  0  0  0  0  0  0  0  0  0  0  0
  -17.8173   37.1665  -23.8294 O   0  0  0  0  0  0  0  0  0  0  0  0
  -16.1819   34.0442  -25.4239 C   0  0  0  0  0  0  0  0  0  0  0  0
  -18.6000   33.2591  -25.6539 C   0  0  0  0  0  0  0  0  0  0  0  0
  -18.0630   32.1532  -25.9349 C   0  0  0  0  0  0  0  0  0  0  0  0
  -15.8676   35.8626  -23.0785 O   0  0  0  0  0  0  0  0  0  0  0  0
  -15.5710   34.5804  -26.5038 O   0  0  0  0  0  0  0  0  0  0  0  0
  -19.4677   33.7437  -26.7084 O   0  0  0  0  0  0  0  0  0  0  0  0
  -16.4823   32.4631  -25.7864 C   0  0  0  0  0  0  0  0  0  0  0  0
  -18.4548   31.7313  -27.2491 O   0  0  0  0  0  0  0  0  0  0  0  0
  -15.8222   31.6571  -24.8578 O   0  0  0  0  0  0  0  0  0  0  0  0
  1  2  1  0
  2  3  1  0
  2  4  2  0
  3  5  1  0
  5  6  1  0
  2  7  1  0
  6  8  1  0
  5  9  2  0
  8 10  1  0
  8 11  1  0
 11 12  1  0
  5 13  1  0
 10 14  1  0
 11 15  1  0
 10 16  1  0
 12 16  1  0
 12 17  1  0
 16 18  1  0
M  END
