
     RDKit          3D

 19 19  0  0  0  0  0  0  0  0999 V2000
  -16.5786   36.2950  -19.6813 O   0  0  0  0  0  0  0  0  0  0  0  0
  -17.5426   36.8642  -20.5584 P   0  0  0  0  0  0  0  0  0  0  0  0
  -17.9112   36.0230  -21.6964 O   0  0  0  0  0  0  0  0  0  0  0  0
  -18.7666   37.2942  -19.7794 O   0  0  0  0  0  0  0  0  0  0  0  0
  -16.9017   38.1806  -21.1108 O   0  0  0  0  0  0  0  0  0  0  0  0
  -17.6150   36.0770  -23.1694 P   0  0  0  0  0  0  0  0  0  0  0  0
  -16.2364   35.8860  -23.3541 O   0  0  0  0  0  0  0  0  0  0  0  0
  -18.4168   34.6907  -23.4896 O   0  0  0  0  0  0  0  0  0  0  0  0
  -18.4229   37.0314  -24.0116 O   0  0  0  0  0  0  0  0  0  0  0  0
  -18.8442   33.6156  -22.4694 C   0  0  0  0  0  0  0  0  0  0  0  0
  -18.2698   32.4165  -22.4530 C   0  0  0  0  0  0  0  0  0  0  0  0
  -19.0255   34.0400  -21.0203 C   0  0  0  0  0  0  0  0  0  0  0  0
  -18.7843   31.6279  -21.2980 O   0  0  0  0  0  0  0  0  0  0  0  0
  -19.6117   32.4283  -20.3905 P   0  0  0  0  0  0  0  0  0  0  0  0
  -18.3749   31.6660  -23.7905 C   0  0  0  0  0  0  0  0  0  0  0  0
  -19.2806   31.0778  -24.0335 O   0  0  0  0  0  0  0  0  0  0  0  0
  -19.1626   32.3781  -19.0295 O   0  0  0  0  0  0  0  0  0  0  0  0
  -17.1745   31.3360  -24.3835 O   0  0  0  0  0  0  0  0  0  0  0  0
  -20.9096   32.1967  -20.5772 O   0  0  0  0  0  0  0  0  0  0  0  0
  1  2  1  0
  2  3  1  0
  2  4  2  0
  2  5  1  0
  3  6  1  0
  6  7  1  0
  6  8  1  0
  6  9  2  0
  8 10  1  0
 10 11  1  0
 10 12  1  0
 11 13  1  0
 12 14  1  0
 13 14  1  0
 11 15  1  0
 15 16  2  0
 14 17  1  0
 15 18  1  0
 14 19  2  0
M  END
