
     RDKit          3D

 19 18  0  0  0  0  0  0  0  0999 V2000
  -14.2349   27.4615  -22.1729 O   0  0  0  0  0  0  0  0  0  0  0  0
  -15.4826   28.2286  -22.0792 C   0  0  0  0  0  0  0  0  0  0  0  0
  -15.3102   29.6094  -22.2814 C   0  0  0  0  0  0  0  0  0  0  0  0
  -16.5816   27.6776  -22.0941 O   0  0  0  0  0  0  0  0  0  0  0  0
  -16.2413   30.3688  -21.8227 C   0  0  0  0  0  0  0  0  0  0  0  0
  -17.0935   31.0126  -22.8560 C   0  0  0  0  0  0  0  0  0  0  0  0
  -18.1595   31.7405  -22.5090 N   0  0  0  0  0  0  0  0  0  0  0  0
  -19.2707   31.1716  -22.0344 C   0  0  0  0  0  0  0  0  0  0  0  0
  -18.1358   33.1893  -22.8295 C   0  0  0  0  0  0  0  0  0  0  0  0
  -17.3528   33.6516  -23.8794 O   0  0  0  0  0  0  0  0  0  0  0  0
  -19.0453   34.1661  -22.4685 C   0  0  0  0  0  0  0  0  0  0  0  0
  -19.8143   30.2087  -22.3260 O   0  0  0  0  0  0  0  0  0  0  0  0
  -19.9765   31.9663  -20.8599 O   0  0  0  0  0  0  0  0  0  0  0  0
  -18.5905   34.8138  -21.2749 O   0  0  0  0  0  0  0  0  0  0  0  0
  -19.6610   32.3067  -19.6847 C   0  0  0  0  0  0  0  0  0  0  0  0
  -18.4544   36.2971  -20.9578 P   0  0  0  0  0  0  0  0  0  0  0  0
  -17.1493   36.5250  -20.4019 O   0  0  0  0  0  0  0  0  0  0  0  0
  -19.5708   36.7095  -19.9864 O   0  0  0  0  0  0  0  0  0  0  0  0
  -18.3116   37.0329  -22.1688 O   0  0  0  0  0  0  0  0  0  0  0  0
  1  2  2  0
  2  3  1  0
  2  4  1  0
  3  5  1  0
  5  6  1  0
  6  7  1  0
  7  8  1  0
  7  9  1  0
  9 10  2  0
  9 11  1  0
  8 12  2  0
  8 13  1  0
 11 14  1  0
 13 15  1  0
 14 16  1  0
 16 17  1  0
 16 18  1  0
 16 19  2  0
M  END
