
     RDKit          3D

 19 18  0  0  0  0  0  0  0  0999 V2000
  -13.9219   27.5101  -22.4405 O   0  0  0  0  0  0  0  0  0  0  0  0
  -15.3187   28.0285  -22.2010 C   0  0  0  0  0  0  0  0  0  0  0  0
  -16.2408   27.3361  -22.0889 N   0  0  0  0  0  0  0  0  0  0  0  0
  -15.3832   29.5150  -22.0285 N   0  0  0  0  0  0  0  0  0  0  0  0
  -15.5335   30.4211  -22.9177 C   0  0  0  0  0  0  0  0  0  0  0  0
  -16.8229   31.0936  -23.0273 C   0  0  0  0  0  0  0  0  0  0  0  0
  -16.9247   32.1316  -24.0444 C   0  0  0  0  0  0  0  0  0  0  0  0
  -17.9629   30.3003  -22.7525 C   0  0  0  0  0  0  0  0  0  0  0  0
  -15.8122   32.7097  -24.3209 O   0  0  0  0  0  0  0  0  0  0  0  0
  -18.9657   31.0308  -21.9816 C   0  0  0  0  0  0  0  0  0  0  0  0
  -18.6536   32.4118  -21.6805 O   0  0  0  0  0  0  0  0  0  0  0  0
  -19.3790   33.1678  -20.5833 P   0  0  0  0  0  0  0  0  0  0  0  0
  -18.9801   34.5392  -20.6561 O   0  0  0  0  0  0  0  0  0  0  0  0
  -20.9179   33.3425  -21.0649 O   0  0  0  0  0  0  0  0  0  0  0  0
  -18.0095   35.5000  -21.5135 P   0  0  0  0  0  0  0  0  0  0  0  0
  -17.1344   36.2219  -20.5544 O   0  0  0  0  0  0  0  0  0  0  0  0
  -18.9377   36.5825  -22.1053 O   0  0  0  0  0  0  0  0  0  0  0  0
  -19.0647   32.4566  -19.4041 O   0  0  0  0  0  0  0  0  0  0  0  0
  -17.1312   35.0548  -22.5817 O   0  0  0  0  0  0  0  0  0  0  0  0
  1  2  2  0
  2  3  1  0
  2  4  1  0
  4  5  1  0
  5  6  1  0
  6  7  1  0
  6  8  1  0
  7  9  1  0
  8 10  1  0
 10 11  1  0
 11 12  1  0
 12 13  1  0
 12 14  2  0
 13 15  1  0
 15 16  1  0
 15 17  2  0
 12 18  1  0
 15 19  1  0
M  END
