
     RDKit          3D

 19 18  0  0  0  0  0  0  0  0999 V2000
  -14.4726   28.0649  -22.4895 O   0  0  0  0  0  0  0  0  0  0  0  0
  -15.7210   28.7170  -22.1683 C   0  0  0  0  0  0  0  0  0  0  0  0
  -16.7283   28.1157  -22.0003 N   0  0  0  0  0  0  0  0  0  0  0  0
  -15.6985   30.1798  -22.3959 C   0  0  0  0  0  0  0  0  0  0  0  0
  -16.7416   30.7770  -22.0782 O   0  0  0  0  0  0  0  0  0  0  0  0
  -16.8101   26.9031  -21.9344 C   0  0  0  0  0  0  0  0  0  0  0  0
  -17.4392   31.5834  -22.9710 C   0  0  0  0  0  0  0  0  0  0  0  0
  -18.6434   32.0812  -22.5876 C   0  0  0  0  0  0  0  0  0  0  0  0
  -18.5353   33.4296  -22.2084 O   0  0  0  0  0  0  0  0  0  0  0  0
  -19.5645   34.1083  -21.1394 P   0  0  0  0  0  0  0  0  0  0  0  0
  -17.4808   30.6576  -24.2428 C   0  0  0  0  0  0  0  0  0  0  0  0
  -18.9361   35.1279  -20.4837 O   0  0  0  0  0  0  0  0  0  0  0  0
  -17.6247   36.0049  -20.8295 P   0  0  0  0  0  0  0  0  0  0  0  0
  -19.9598   32.8624  -20.2115 O   0  0  0  0  0  0  0  0  0  0  0  0
  -20.7887   34.5228  -21.8608 O   0  0  0  0  0  0  0  0  0  0  0  0
  -16.9399   36.2905  -19.6910 O   0  0  0  0  0  0  0  0  0  0  0  0
  -18.2373   37.3318  -21.3653 O   0  0  0  0  0  0  0  0  0  0  0  0
  -16.6307   35.5295  -21.7347 O   0  0  0  0  0  0  0  0  0  0  0  0
  -18.7354   31.0987  -24.9806 O   0  0  0  0  0  0  0  0  0  0  0  0
  1  2  2  0
  2  3  1  0
  2  4  1  0
  4  5  1  0
  3  6  1  0
  5  7  1  0
  7  8  1  0
  8  9  1  0
  9 10  1  0
  7 11  1  0
 10 12  1  0
 12 13  1  0
 10 14  1  0
 10 15  2  0
 13 16  1  0
 13 17  2  0
 13 18  1  0
 11 19  1  0
M  END
