
     RDKit          3D

 20 19  0  0  0  0  0  0  0  0999 V2000
  -16.5330   36.4167  -19.7044 O   0  0  0  0  0  0  0  0  0  0  0  0
  -17.5659   36.8740  -20.5901 P   0  0  0  0  0  0  0  0  0  0  0  0
  -17.8577   35.9571  -21.6801 O   0  0  0  0  0  0  0  0  0  0  0  0
  -17.1585   38.2282  -21.1739 O   0  0  0  0  0  0  0  0  0  0  0  0
  -17.3725   35.8953  -23.0585 P   0  0  0  0  0  0  0  0  0  0  0  0
  -17.9169   34.7441  -23.8753 O   0  0  0  0  0  0  0  0  0  0  0  0
  -18.9614   37.1154  -19.7609 O   0  0  0  0  0  0  0  0  0  0  0  0
  -15.8688   35.7835  -23.0258 O   0  0  0  0  0  0  0  0  0  0  0  0
  -17.1722   33.4489  -24.1296 C   0  0  0  0  0  0  0  0  0  0  0  0
  -17.9213   37.1171  -23.8677 O   0  0  0  0  0  0  0  0  0  0  0  0
  -17.9842   32.3272  -23.9841 C   0  0  0  0  0  0  0  0  0  0  0  0
  -17.4925   31.2875  -23.1342 C   0  0  0  0  0  0  0  0  0  0  0  0
  -19.0521   32.0196  -24.8062 O   0  0  0  0  0  0  0  0  0  0  0  0
  -18.4131   30.7982  -22.3660 O   0  0  0  0  0  0  0  0  0  0  0  0
  -16.4332   30.5997  -23.2526 N   0  0  0  0  0  0  0  0  0  0  0  0
  -16.0490   29.5302  -22.2986 C   0  0  0  0  0  0  0  0  0  0  0  0
  -15.3127   28.5663  -22.7776 C   0  0  0  0  0  0  0  0  0  0  0  0
  -15.2372   27.4225  -22.1495 C   0  0  0  0  0  0  0  0  0  0  0  0
  -16.3033   26.9282  -21.7751 O   0  0  0  0  0  0  0  0  0  0  0  0
  -14.1098   26.8531  -22.0093 O   0  0  0  0  0  0  0  0  0  0  0  0
  1  2  1  0
  2  3  1  0
  2  4  2  0
  3  5  1  0
  5  6  1  0
  2  7  1  0
  5  8  1  0
  6  9  1  0
  5 10  2  0
  9 11  1  0
 11 12  1  0
 11 13  2  0
 12 14  2  0
 12 15  1  0
 15 16  1  0
 16 17  1  0
 17 18  1  0
 18 19  2  0
 18 20  1  0
M  END
