
     RDKit          3D

 20 20  0  0  0  0  0  0  0  0999 V2000
  -14.4726   28.0649  -22.4895 O   0  0  0  0  0  0  0  0  0  0  0  0
  -15.7366   28.3735  -21.9315 C   0  0  0  0  0  0  0  0  0  0  0  0
  -16.5563   27.5819  -21.6697 O   0  0  0  0  0  0  0  0  0  0  0  0
  -16.0709   29.8491  -22.0476 C   0  0  0  0  0  0  0  0  0  0  0  0
  -16.2572   30.4142  -23.3918 C   0  0  0  0  0  0  0  0  0  0  0  0
  -16.6844   31.8256  -23.4098 C   0  0  0  0  0  0  0  0  0  0  0  0
  -16.2398   32.4708  -24.5888 C   0  0  0  0  0  0  0  0  0  0  0  0
  -16.7875   33.9010  -24.6997 C   0  0  0  0  0  0  0  0  0  0  0  0
  -17.9257   31.9863  -22.8381 C   0  0  0  0  0  0  0  0  0  0  0  0
  -18.7026   31.0723  -22.2596 O   0  0  0  0  0  0  0  0  0  0  0  0
  -18.5800   33.2553  -23.0518 N   0  0  0  0  0  0  0  0  0  0  0  0
  -18.1514   34.0136  -24.3044 C   0  0  0  0  0  0  0  0  0  0  0  0
  -15.9570   34.8382  -23.9628 C   0  0  0  0  0  0  0  0  0  0  0  0
  -16.7762   34.3447  -26.1714 C   0  0  0  0  0  0  0  0  0  0  0  0
  -16.6432   35.5590  -26.5074 C   0  0  0  0  0  0  0  0  0  0  0  0
  -17.7648   33.5321  -27.1057 C   0  0  0  0  0  0  0  0  0  0  0  0
  -19.3830   33.9127  -21.9841 C   0  0  0  0  0  0  0  0  0  0  0  0
  -19.6455   33.0851  -20.8073 C   0  0  0  0  0  0  0  0  0  0  0  0
  -18.7525   32.8654  -19.9921 O   0  0  0  0  0  0  0  0  0  0  0  0
  -20.7542   32.5871  -20.6899 O   0  0  0  0  0  0  0  0  0  0  0  0
  1  2  2  0
  2  3  1  0
  2  4  1  0
  4  5  1  0
  5  6  1  0
  6  7  1  0
  7  8  1  0
  6  9  1  0
  9 10  2  0
  9 11  1  0
  8 12  1  0
 11 12  1  0
  8 13  1  0
  8 14  1  0
 14 15  1  0
 14 16  1  0
 11 17  1  0
 17 18  1  0
 18 19  1  0
 18 20  2  0
M  END
