
     RDKit          3D

 20 20  0  0  0  0  0  0  0  0999 V2000
  -13.9219   27.5101  -22.4405 O   0  0  0  0  0  0  0  0  0  0  0  0
  -15.3187   28.0285  -22.2010 C   0  0  0  0  0  0  0  0  0  0  0  0
  -16.2408   27.3361  -22.0889 N   0  0  0  0  0  0  0  0  0  0  0  0
  -15.3832   29.5150  -22.0285 N   0  0  0  0  0  0  0  0  0  0  0  0
  -15.5335   30.4211  -22.9177 C   0  0  0  0  0  0  0  0  0  0  0  0
  -16.8229   31.0936  -23.0273 C   0  0  0  0  0  0  0  0  0  0  0  0
  -16.9247   32.1316  -24.0444 C   0  0  0  0  0  0  0  0  0  0  0  0
  -17.9629   30.3003  -22.7525 C   0  0  0  0  0  0  0  0  0  0  0  0
  -15.8122   32.7097  -24.3209 O   0  0  0  0  0  0  0  0  0  0  0  0
  -19.1681   31.1157  -23.1208 C   0  0  0  0  0  0  0  0  0  0  0  0
  -18.3375   32.3454  -24.2504 C   0  0  0  0  0  0  0  0  0  0  0  0
  -18.5911   31.9469  -25.7238 C   0  0  0  0  0  0  0  0  0  0  0  0
  -19.2973   32.9348  -26.4560 C   0  0  0  0  0  0  0  0  0  0  0  0
  -18.4692   33.9746  -26.6741 O   0  0  0  0  0  0  0  0  0  0  0  0
  -18.4095   35.1320  -25.8829 C   0  0  0  0  0  0  0  0  0  0  0  0
  -17.3617   35.9624  -25.9703 O   0  0  0  0  0  0  0  0  0  0  0  0
  -19.6713   35.5231  -25.3651 C   0  0  0  0  0  0  0  0  0  0  0  0
  -19.8113   31.5915  -22.0593 O   0  0  0  0  0  0  0  0  0  0  0  0
  -19.6849   36.8765  -24.7952 C   0  0  0  0  0  0  0  0  0  0  0  0
  -20.9627   37.3115  -24.4253 O   0  0  0  0  0  0  0  0  0  0  0  0
  1  2  2  0
  2  3  1  0
  2  4  1  0
  4  5  1  0
  5  6  1  0
  6  7  1  0
  6  8  1  0
  7  9  2  0
  8 10  1  0
  7 11  1  0
 10 11  1  0
 11 12  1  0
 12 13  1  0
 13 14  1  0
 14 15  1  0
 15 16  2  0
 15 17  1  0
 10 18  1  0
 17 19  1  0
 19 20  1  0
M  END
