
     RDKit          3D

 20 19  0  0  0  0  0  0  0  0999 V2000
  -16.7605   36.4648  -19.7897 O   0  0  0  0  0  0  0  0  0  0  0  0
  -17.8551   36.9014  -20.6872 P   0  0  0  0  0  0  0  0  0  0  0  0
  -18.0988   35.8587  -21.7650 O   0  0  0  0  0  0  0  0  0  0  0  0
  -19.1365   36.8861  -19.7974 O   0  0  0  0  0  0  0  0  0  0  0  0
  -17.4310   38.1170  -21.3105 O   0  0  0  0  0  0  0  0  0  0  0  0
  -17.5470   35.8623  -23.2149 P   0  0  0  0  0  0  0  0  0  0  0  0
  -17.9387   36.8708  -23.9451 O   0  0  0  0  0  0  0  0  0  0  0  0
  -17.9091   34.4413  -23.7886 O   0  0  0  0  0  0  0  0  0  0  0  0
  -15.9825   35.9261  -23.1668 O   0  0  0  0  0  0  0  0  0  0  0  0
  -17.1048   33.4767  -24.5406 P   0  0  0  0  0  0  0  0  0  0  0  0
  -17.7044   32.0839  -24.4087 O   0  0  0  0  0  0  0  0  0  0  0  0
  -18.0412   31.4298  -23.2124 C   0  0  0  0  0  0  0  0  0  0  0  0
  -18.5020   30.2810  -23.2321 O   0  0  0  0  0  0  0  0  0  0  0  0
  -15.6825   33.3192  -24.1639 O   0  0  0  0  0  0  0  0  0  0  0  0
  -18.1133   32.1908  -21.9613 C   0  0  0  0  0  0  0  0  0  0  0  0
  -17.1318   33.9657  -25.9511 O   0  0  0  0  0  0  0  0  0  0  0  0
  -19.4413   31.9998  -21.1304 C   0  0  0  0  0  0  0  0  0  0  0  0
  -19.9411   33.2643  -20.6548 C   0  0  0  0  0  0  0  0  0  0  0  0
  -19.8757   33.3869  -19.3455 O   0  0  0  0  0  0  0  0  0  0  0  0
  -20.5627   34.0881  -21.3993 O   0  0  0  0  0  0  0  0  0  0  0  0
  1  2  1  0
  2  3  1  0
  2  4  1  0
  2  5  2  0
  3  6  1  0
  6  7  2  0
  6  8  1  0
  6  9  1  0
  8 10  1  0
 10 11  1  0
 11 12  1  0
 12 13  2  0
 10 14  1  0
 12 15  1  0
 10 16  2  0
 15 17  1  0
 17 18  1  0
 18 19  2  0
 18 20  1  0
M  END
