
     RDKit          3D

 20 20  0  0  0  0  0  0  0  0999 V2000
  -19.5816   32.3624  -19.6133 O   0  0  0  0  0  0  0  0  0  0  0  0
  -19.6829   32.8106  -20.8542 P   0  0  0  0  0  0  0  0  0  0  0  0
  -20.8672   33.2527  -21.1218 O   0  0  0  0  0  0  0  0  0  0  0  0
  -18.6263   33.9832  -21.1028 O   0  0  0  0  0  0  0  0  0  0  0  0
  -18.9906   35.5022  -21.1514 P   0  0  0  0  0  0  0  0  0  0  0  0
  -19.1549   31.7004  -21.8808 O   0  0  0  0  0  0  0  0  0  0  0  0
  -17.7884   36.0694  -21.5362 O   0  0  0  0  0  0  0  0  0  0  0  0
  -19.9811   35.7468  -21.9969 O   0  0  0  0  0  0  0  0  0  0  0  0
  -17.4795   37.6232  -22.0776 P   0  0  0  0  0  0  0  0  0  0  0  0
  -18.5540   38.0684  -22.7475 O   0  0  0  0  0  0  0  0  0  0  0  0
  -19.2752   36.0684  -19.7884 O   0  0  0  0  0  0  0  0  0  0  0  0
  -16.1372   37.4425  -22.7202 O   0  0  0  0  0  0  0  0  0  0  0  0
  -17.2778   38.2576  -20.5655 O   0  0  0  0  0  0  0  0  0  0  0  0
  -17.8789   31.4910  -22.6296 C   0  0  0  0  0  0  0  0  0  0  0  0
  -17.1722   30.4397  -22.2741 C   0  0  0  0  0  0  0  0  0  0  0  0
  -17.3131   29.3634  -21.9132 N   0  0  0  0  0  0  0  0  0  0  0  0
  -16.2958   28.3976  -21.8497 C   0  0  0  0  0  0  0  0  0  0  0  0
  -15.7151   30.3926  -22.9707 N   0  0  0  0  0  0  0  0  0  0  0  0
  -15.2795   29.2077  -22.4957 N   0  0  0  0  0  0  0  0  0  0  0  0
  -15.0017   31.3210  -23.5927 C   0  0  0  0  0  0  0  0  0  0  0  0
  1  2  1  0
  2  3  2  0
  2  4  1  0
  4  5  1  0
  2  6  1  0
  5  7  1  0
  5  8  2  0
  7  9  1  0
  9 10  1  0
  5 11  1  0
  9 12  2  0
  9 13  1  0
  6 14  1  0
 14 15  1  0
 15 16  2  0
 16 17  1  0
 15 18  1  0
 17 19  2  0
 18 19  1  0
 18 20  1  0
M  END
