
     RDKit          3D

 20 19  0  0  0  0  0  0  0  0999 V2000
  -16.5786   36.2950  -19.6813 O   0  0  0  0  0  0  0  0  0  0  0  0
  -17.5426   36.8642  -20.5584 P   0  0  0  0  0  0  0  0  0  0  0  0
  -17.9112   36.0230  -21.6964 O   0  0  0  0  0  0  0  0  0  0  0  0
  -18.7666   37.2942  -19.7794 O   0  0  0  0  0  0  0  0  0  0  0  0
  -16.9017   38.1806  -21.1108 O   0  0  0  0  0  0  0  0  0  0  0  0
  -18.9945   35.0646  -21.8597 P   0  0  0  0  0  0  0  0  0  0  0  0
  -18.4838   33.7172  -22.0483 O   0  0  0  0  0  0  0  0  0  0  0  0
  -18.8523   32.3739  -21.3253 P   0  0  0  0  0  0  0  0  0  0  0  0
  -20.2385   32.5220  -20.9406 O   0  0  0  0  0  0  0  0  0  0  0  0
  -19.0726   31.2087  -22.4491 O   0  0  0  0  0  0  0  0  0  0  0  0
  -20.0801   35.3497  -22.9064 O   0  0  0  0  0  0  0  0  0  0  0  0
  -18.0636   32.1296  -20.2448 O   0  0  0  0  0  0  0  0  0  0  0  0
  -17.9334   30.7349  -23.1983 C   0  0  0  0  0  0  0  0  0  0  0  0
  -16.7139   30.9085  -22.6695 C   0  0  0  0  0  0  0  0  0  0  0  0
  -19.7409   35.2193  -20.4962 O   0  0  0  0  0  0  0  0  0  0  0  0
  -16.1896   29.7190  -22.1051 C   0  0  0  0  0  0  0  0  0  0  0  0
  -15.5800   28.8876  -22.7399 C   0  0  0  0  0  0  0  0  0  0  0  0
  -15.3330   27.6679  -22.5501 C   0  0  0  0  0  0  0  0  0  0  0  0
  -14.1434   27.1325  -22.4356 O   0  0  0  0  0  0  0  0  0  0  0  0
  -16.3554   26.8680  -22.3864 O   0  0  0  0  0  0  0  0  0  0  0  0
  1  2  1  0
  2  3  1  0
  2  4  2  0
  2  5  1  0
  3  6  1  0
  6  7  1  0
  7  8  1  0
  8  9  1  0
  8 10  1  0
  6 11  2  0
  8 12  2  0
 10 13  1  0
 13 14  1  0
  6 15  1  0
 14 16  1  0
 16 17  2  3
 17 18  1  0
 18 19  2  0
 18 20  1  0
M  END
