
     RDKit          3D

 21 21  0  0  0  0  0  0  0  0999 V2000
  -21.1282   33.5673  -20.6255 O   0  0  0  0  0  0  0  0  0  0  0  0
  -19.7247   33.1597  -20.7288 P   0  0  0  0  0  0  0  0  0  0  0  0
  -19.2782   32.9479  -22.0286 O   0  0  0  0  0  0  0  0  0  0  0  0
  -18.5120   31.8287  -22.5913 C   0  0  0  0  0  0  0  0  0  0  0  0
  -18.0137   31.9393  -23.8594 C   0  0  0  0  0  0  0  0  0  0  0  0
  -16.6152   31.9179  -24.1620 C   0  0  0  0  0  0  0  0  0  0  0  0
  -19.6209   31.7463  -20.0145 O   0  0  0  0  0  0  0  0  0  0  0  0
  -15.8913   31.0533  -23.4792 O   0  0  0  0  0  0  0  0  0  0  0  0
  -18.7523   30.8801  -24.6831 O   0  0  0  0  0  0  0  0  0  0  0  0
  -16.1344   33.2965  -24.0647 C   0  0  0  0  0  0  0  0  0  0  0  0
  -18.5769   34.0309  -20.1209 O   0  0  0  0  0  0  0  0  0  0  0  0
  -18.6757   35.6067  -20.0397 P   0  0  0  0  0  0  0  0  0  0  0  0
  -17.1945   36.0571  -20.0886 O   0  0  0  0  0  0  0  0  0  0  0  0
  -19.2188   35.9382  -21.4817 O   0  0  0  0  0  0  0  0  0  0  0  0
  -19.2564   36.3451  -19.0223 O   0  0  0  0  0  0  0  0  0  0  0  0
  -17.1581   34.2459  -24.1322 O   0  0  0  0  0  0  0  0  0  0  0  0
  -16.8981   35.6683  -24.2506 C   0  0  0  0  0  0  0  0  0  0  0  0
  -17.3457   36.3716  -23.1901 C   0  0  0  0  0  0  0  0  0  0  0  0
  -17.2065   37.7290  -23.3142 O   0  0  0  0  0  0  0  0  0  0  0  0
  -18.9109   36.4280  -22.8175 C   0  0  0  0  0  0  0  0  0  0  0  0
  -15.6100   35.8274  -24.5419 O   0  0  0  0  0  0  0  0  0  0  0  0
  1  2  1  0
  2  3  1  0
  3  4  1  0
  4  5  1  0
  5  6  1  0
  2  7  2  0
  6  8  1  0
  5  9  1  0
  6 10  1  0
  2 11  1  0
 11 12  1  0
 12 13  2  0
 12 14  1  0
 12 15  1  0
 10 16  1  0
 16 17  1  0
 17 18  1  0
 18 19  1  0
 14 20  1  0
 18 20  1  0
 17 21  1  0
M  END
