
     RDKit          3D

 21 21  0  0  0  0  0  0  0  0999 V2000
  -16.5786   36.2950  -19.6813 O   0  0  0  0  0  0  0  0  0  0  0  0
  -17.7109   36.8002  -20.4585 P   0  0  0  0  0  0  0  0  0  0  0  0
  -18.0240   35.9096  -21.5522 O   0  0  0  0  0  0  0  0  0  0  0  0
  -18.8223   36.8537  -19.3602 O   0  0  0  0  0  0  0  0  0  0  0  0
  -17.3862   38.2253  -20.8851 O   0  0  0  0  0  0  0  0  0  0  0  0
  -17.4739   35.9014  -22.9632 P   0  0  0  0  0  0  0  0  0  0  0  0
  -17.8974   36.9393  -23.7244 O   0  0  0  0  0  0  0  0  0  0  0  0
  -15.9202   35.9074  -22.9102 O   0  0  0  0  0  0  0  0  0  0  0  0
  -17.7360   34.5338  -23.6865 O   0  0  0  0  0  0  0  0  0  0  0  0
  -18.9272   33.6875  -23.5892 C   0  0  0  0  0  0  0  0  0  0  0  0
  -18.9881   32.8327  -24.6758 C   0  0  0  0  0  0  0  0  0  0  0  0
  -18.6355   32.8491  -22.2911 C   0  0  0  0  0  0  0  0  0  0  0  0
  -19.4995   32.9636  -21.2358 C   0  0  0  0  0  0  0  0  0  0  0  0
  -20.7152   33.0730  -21.4276 O   0  0  0  0  0  0  0  0  0  0  0  0
  -19.1625   32.2954  -20.0535 O   0  0  0  0  0  0  0  0  0  0  0  0
  -18.2076   31.6520  -24.3781 C   0  0  0  0  0  0  0  0  0  0  0  0
  -18.3474   31.4723  -22.8402 C   0  0  0  0  0  0  0  0  0  0  0  0
  -18.3585   30.4228  -25.0365 O   0  0  0  0  0  0  0  0  0  0  0  0
  -17.3610   30.7340  -22.1672 O   0  0  0  0  0  0  0  0  0  0  0  0
  -18.5922   33.4410  -26.0255 O   0  0  0  0  0  0  0  0  0  0  0  0
  -19.5497   33.5200  -27.0725 C   0  0  0  0  0  0  0  0  0  0  0  0
  1  2  1  0
  2  3  1  0
  2  4  2  0
  2  5  1  0
  3  6  1  0
  6  7  2  0
  6  8  1  0
  6  9  1  0
  9 10  1  0
 10 11  1  0
 10 12  1  0
 12 13  1  0
 13 14  2  0
 13 15  1  0
 11 16  1  0
 12 17  1  0
 16 17  1  0
 16 18  1  0
 17 19  1  0
 11 20  1  0
 20 21  1  0
M  END
