
     RDKit          3D

 21 21  0  0  0  0  0  0  0  0999 V2000
  -19.5816   32.3624  -19.6133 O   0  0  0  0  0  0  0  0  0  0  0  0
  -19.6829   32.8106  -20.8542 P   0  0  0  0  0  0  0  0  0  0  0  0
  -20.8672   33.2527  -21.1218 O   0  0  0  0  0  0  0  0  0  0  0  0
  -18.6263   33.9832  -21.1028 O   0  0  0  0  0  0  0  0  0  0  0  0
  -18.9906   35.5022  -21.1514 P   0  0  0  0  0  0  0  0  0  0  0  0
  -19.1549   31.7004  -21.8808 O   0  0  0  0  0  0  0  0  0  0  0  0
  -17.7884   36.0694  -21.5362 O   0  0  0  0  0  0  0  0  0  0  0  0
  -19.9811   35.7468  -21.9969 O   0  0  0  0  0  0  0  0  0  0  0  0
  -17.4795   37.6232  -22.0776 P   0  0  0  0  0  0  0  0  0  0  0  0
  -18.5540   38.0684  -22.7475 O   0  0  0  0  0  0  0  0  0  0  0  0
  -19.2752   36.0684  -19.7884 O   0  0  0  0  0  0  0  0  0  0  0  0
  -16.1372   37.4425  -22.7202 O   0  0  0  0  0  0  0  0  0  0  0  0
  -17.2671   38.6259  -20.8679 O   0  0  0  0  0  0  0  0  0  0  0  0
  -17.8807   31.5210  -22.6222 C   0  0  0  0  0  0  0  0  0  0  0  0
  -18.0101   31.6662  -23.8828 C   0  0  0  0  0  0  0  0  0  0  0  0
  -16.8694   32.2643  -24.5566 C   0  0  0  0  0  0  0  0  0  0  0  0
  -19.0903   31.4252  -24.6814 C   0  0  0  0  0  0  0  0  0  0  0  0
  -20.2619   30.7060  -24.2856 O   0  0  0  0  0  0  0  0  0  0  0  0
  -19.1039   31.7120  -26.1449 C   0  0  0  0  0  0  0  0  0  0  0  0
  -17.9647   32.3508  -26.6682 C   0  0  0  0  0  0  0  0  0  0  0  0
  -16.8636   32.6217  -25.9063 C   0  0  0  0  0  0  0  0  0  0  0  0
  1  2  1  0
  2  3  2  0
  2  4  1  0
  4  5  1  0
  2  6  1  0
  5  7  1  0
  5  8  2  0
  7  9  1  0
  9 10  1  0
  5 11  1  0
  9 12  2  0
  9 13  1  0
  6 14  1  0
 14 15  1  0
 15 16  1  0
 15 17  2  0
 17 18  1  0
 17 19  1  0
 19 20  2  0
 16 21  2  0
 20 21  1  0
M  END
