
     RDKit          3D

 21 21  0  0  0  0  0  0  0  0999 V2000
  -12.8598   27.4677  -21.9279 C   0  0  0  0  0  0  0  0  0  0  0  0
  -14.4087   27.5113  -21.8895 C   0  0  0  0  0  0  0  0  0  0  0  0
  -12.3176   28.0350  -22.4498 O   0  0  0  0  0  0  0  0  0  0  0  0
  -14.8152   28.9176  -22.6414 C   0  0  0  0  0  0  0  0  0  0  0  0
  -12.5143   26.5205  -20.9389 C   0  0  0  0  0  0  0  0  0  0  0  0
  -10.9844   26.4841  -20.8232 C   0  0  0  0  0  0  0  0  0  0  0  0
  -14.1083   29.8604  -22.6290 O   0  0  0  0  0  0  0  0  0  0  0  0
  -16.0684   29.2437  -21.8617 C   0  0  0  0  0  0  0  0  0  0  0  0
  -10.2269   27.3541  -20.5557 O   0  0  0  0  0  0  0  0  0  0  0  0
  -10.3656   25.2308  -20.7693 C   0  0  0  0  0  0  0  0  0  0  0  0
  -16.9807   28.5255  -21.8963 O   0  0  0  0  0  0  0  0  0  0  0  0
   -9.1260   24.9057  -20.8644 C   0  0  0  0  0  0  0  0  0  0  0  0
  -16.2163   30.4015  -21.4145 N   0  0  0  0  0  0  0  0  0  0  0  0
  -17.3837   31.1255  -21.3535 C   0  0  0  0  0  0  0  0  0  0  0  0
  -18.5079   30.5295  -21.6434 C   0  0  0  0  0  0  0  0  0  0  0  0
  -17.3762   32.2458  -20.5869 C   0  0  0  0  0  0  0  0  0  0  0  0
  -18.6194   29.5203  -22.5706 O   0  0  0  0  0  0  0  0  0  0  0  0
  -19.7010   30.9913  -21.2617 C   0  0  0  0  0  0  0  0  0  0  0  0
  -18.4814   32.7776  -20.0468 C   0  0  0  0  0  0  0  0  0  0  0  0
  -19.7120   32.1978  -20.4596 C   0  0  0  0  0  0  0  0  0  0  0  0
  -20.8701   32.7615  -19.9861 O   0  0  0  0  0  0  0  0  0  0  0  0
  1  2  1  0
  1  3  2  0
  2  4  1  0
  1  5  1  0
  5  6  1  0
  4  7  1  0
  4  8  1  0
  6  9  1  0
  6 10  2  3
  8 11  2  0
 10 12  1  0
  8 13  1  0
 13 14  1  0
 14 15  2  0
 14 16  1  0
 15 17  1  0
 15 18  1  0
 16 19  2  0
 18 20  2  0
 19 20  1  0
 20 21  1  0
M  END
