
     RDKit          3D

 22 23  0  0  0  0  0  0  0  0999 V2000
  -13.6663   27.6007  -22.4689 O   0  0  0  0  0  0  0  0  0  0  0  0
  -14.9090   27.9369  -22.2629 C   0  0  0  0  0  0  0  0  0  0  0  0
  -15.3154   29.3002  -22.3242 C   0  0  0  0  0  0  0  0  0  0  0  0
  -14.5204   30.2515  -22.7582 C   0  0  0  0  0  0  0  0  0  0  0  0
  -15.8414   27.0803  -22.3368 O   0  0  0  0  0  0  0  0  0  0  0  0
  -13.4380   30.0924  -23.4058 O   0  0  0  0  0  0  0  0  0  0  0  0
  -15.1442   31.6523  -22.7532 C   0  0  0  0  0  0  0  0  0  0  0  0
  -16.5479   31.7317  -22.6835 C   0  0  0  0  0  0  0  0  0  0  0  0
  -17.3288   30.7276  -22.2126 C   0  0  0  0  0  0  0  0  0  0  0  0
  -18.6819   30.9656  -22.0500 N   0  0  0  0  0  0  0  0  0  0  0  0
  -17.2805   32.8944  -22.7662 C   0  0  0  0  0  0  0  0  0  0  0  0
  -16.8194   29.3800  -22.1809 C   0  0  0  0  0  0  0  0  0  0  0  0
  -18.6337   32.5452  -22.3544 C   0  0  0  0  0  0  0  0  0  0  0  0
  -19.1783   33.3546  -21.1093 P   0  0  0  0  0  0  0  0  0  0  0  0
  -19.5542   32.6765  -23.5543 O   0  0  0  0  0  0  0  0  0  0  0  0
  -18.4826   34.3421  -20.8129 O   0  0  0  0  0  0  0  0  0  0  0  0
  -20.7297   33.9362  -21.3350 O   0  0  0  0  0  0  0  0  0  0  0  0
  -18.5727   35.3628  -19.6151 C   0  0  0  0  0  0  0  0  0  0  0  0
  -17.7833   36.6518  -19.8937 C   0  0  0  0  0  0  0  0  0  0  0  0
  -16.5908   36.6631  -19.9974 O   0  0  0  0  0  0  0  0  0  0  0  0
  -18.3640   37.7971  -20.0518 O   0  0  0  0  0  0  0  0  0  0  0  0
  -19.3392   32.3849  -19.9055 O   0  0  0  0  0  0  0  0  0  0  0  0
  1  2  2  0
  2  3  1  0
  3  4  2  0
  2  5  1  0
  4  6  1  0
  4  7  1  0
  7  8  2  0
  8  9  1  0
  9 10  1  0
  8 11  1  0
  3 12  1  0
  9 12  2  0
 10 13  1  0
 11 13  1  0
 13 14  1  0
 13 15  1  0
 14 16  1  0
 14 17  2  0
 16 18  1  0
 18 19  1  0
 19 20  2  0
 19 21  1  0
 14 22  1  0
M  END
