
     RDKit          3D

 22 23  0  0  0  0  0  0  0  0999 V2000
  -21.1282   33.5673  -20.6255 O   0  0  0  0  0  0  0  0  0  0  0  0
  -19.7247   33.1597  -20.7288 P   0  0  0  0  0  0  0  0  0  0  0  0
  -19.2782   32.9479  -22.0286 O   0  0  0  0  0  0  0  0  0  0  0  0
  -18.6917   34.1693  -20.1196 O   0  0  0  0  0  0  0  0  0  0  0  0
  -18.7832   31.6821  -22.6548 C   0  0  0  0  0  0  0  0  0  0  0  0
  -18.4516   35.5964  -20.3911 P   0  0  0  0  0  0  0  0  0  0  0  0
  -18.7524   35.9045  -21.6706 O   0  0  0  0  0  0  0  0  0  0  0  0
  -17.5236   31.5501  -22.9689 C   0  0  0  0  0  0  0  0  0  0  0  0
  -17.7350   36.7737  -22.6713 P   0  0  0  0  0  0  0  0  0  0  0  0
  -19.1880   36.4271  -19.4776 O   0  0  0  0  0  0  0  0  0  0  0  0
  -19.6105   31.6956  -20.1884 O   0  0  0  0  0  0  0  0  0  0  0  0
  -16.8635   30.3707  -22.4322 N   0  0  0  0  0  0  0  0  0  0  0  0
  -16.8805   32.3141  -23.8353 N   0  0  0  0  0  0  0  0  0  0  0  0
  -16.9039   35.7048  -20.0461 O   0  0  0  0  0  0  0  0  0  0  0  0
  -15.5757   31.7147  -23.9958 N   0  0  0  0  0  0  0  0  0  0  0  0
  -17.0985   29.4447  -21.6351 C   0  0  0  0  0  0  0  0  0  0  0  0
  -17.9136   38.0482  -22.3745 O   0  0  0  0  0  0  0  0  0  0  0  0
  -15.5951   30.6083  -23.1007 C   0  0  0  0  0  0  0  0  0  0  0  0
  -18.2506   36.6270  -24.1601 O   0  0  0  0  0  0  0  0  0  0  0  0
  -16.3821   36.0557  -22.4882 O   0  0  0  0  0  0  0  0  0  0  0  0
  -14.8378   29.5783  -22.8196 N   0  0  0  0  0  0  0  0  0  0  0  0
  -15.7633   28.7405  -21.8115 C   0  0  0  0  0  0  0  0  0  0  0  0
  1  2  1  0
  2  3  1  0
  2  4  1  0
  3  5  1  0
  4  6  1  0
  6  7  1  0
  5  8  1  0
  7  9  1  0
  6 10  1  0
  2 11  2  0
  8 12  1  0
  8 13  2  0
  6 14  2  0
 13 15  1  0
 12 16  1  0
  9 17  1  0
 12 18  1  0
 15 18  1  0
  9 19  2  0
  9 20  1  0
 18 21  2  0
 16 22  2  0
 21 22  1  0
M  END
