
     RDKit          3D

 22 22  0  0  0  0  0  0  0  0999 V2000
  -16.5786   36.2950  -19.6813 O   0  0  0  0  0  0  0  0  0  0  0  0
  -17.7109   36.8002  -20.4585 P   0  0  0  0  0  0  0  0  0  0  0  0
  -18.0240   35.9096  -21.5522 O   0  0  0  0  0  0  0  0  0  0  0  0
  -18.8223   36.8537  -19.3602 O   0  0  0  0  0  0  0  0  0  0  0  0
  -17.3862   38.2253  -20.8851 O   0  0  0  0  0  0  0  0  0  0  0  0
  -17.4739   35.9014  -22.9632 P   0  0  0  0  0  0  0  0  0  0  0  0
  -17.8974   36.9393  -23.7244 O   0  0  0  0  0  0  0  0  0  0  0  0
  -15.9202   35.9074  -22.9102 O   0  0  0  0  0  0  0  0  0  0  0  0
  -17.7360   34.5338  -23.6865 O   0  0  0  0  0  0  0  0  0  0  0  0
  -18.9272   33.6875  -23.5892 C   0  0  0  0  0  0  0  0  0  0  0  0
  -18.9881   32.8327  -24.6758 C   0  0  0  0  0  0  0  0  0  0  0  0
  -18.6355   32.8491  -22.2911 C   0  0  0  0  0  0  0  0  0  0  0  0
  -19.4995   32.9636  -21.2358 C   0  0  0  0  0  0  0  0  0  0  0  0
  -18.0488   31.7934  -24.5886 C   0  0  0  0  0  0  0  0  0  0  0  0
  -18.1813   31.4914  -23.0986 C   0  0  0  0  0  0  0  0  0  0  0  0
  -19.2431   32.3251  -20.0287 O   0  0  0  0  0  0  0  0  0  0  0  0
  -18.2785   30.6261  -25.3418 O   0  0  0  0  0  0  0  0  0  0  0  0
  -17.0661   30.9629  -22.4173 O   0  0  0  0  0  0  0  0  0  0  0  0
  -18.7414   33.5616  -26.0411 O   0  0  0  0  0  0  0  0  0  0  0  0
  -15.9644   30.1109  -23.0037 C   0  0  0  0  0  0  0  0  0  0  0  0
  -15.9954   28.8613  -22.6070 C   0  0  0  0  0  0  0  0  0  0  0  0
  -14.9004   28.1605  -22.4090 O   0  0  0  0  0  0  0  0  0  0  0  0
  1  2  1  0
  2  3  1  0
  2  4  2  0
  2  5  1  0
  3  6  1  0
  6  7  2  0
  6  8  1  0
  6  9  1  0
  9 10  1  0
 10 11  1  0
 10 12  1  0
 12 13  1  0
 11 14  1  0
 12 15  1  0
 14 15  1  0
 13 16  1  0
 14 17  1  0
 15 18  1  0
 11 19  1  0
 18 20  1  0
 20 21  1  0
 21 22  1  0
M  END
