
     RDKit          3D

  4  3  0  0  0  0  0  0  0  0999 V2000
  -15.0905   26.7603  -29.3280 N   0  0  0  0  0  0  0  0  0  0  0  0
  -16.2009   27.1320  -29.3604 C   0  0  0  0  0  0  0  0  0  0  0  0
  -17.2483   26.1944  -29.2534 N   0  0  0  0  0  0  0  0  0  0  0  0
  -16.6630   28.2563  -29.2820 O   0  0  0  0  0  0  0  0  0  0  0  0
  1  2  1  0
  2  3  1  0
  2  4  2  0
M  END
