
     RDKit          3D

  4  3  0  0  0  0  0  0  0  0999 V2000
  -15.0905   26.7603  -29.3280 O   0  0  0  0  0  0  0  0  0  0  0  0
  -16.1726   27.3103  -29.4928 C   0  0  0  0  0  0  0  0  0  0  0  0
  -17.3469   26.5156  -29.4808 C   0  0  0  0  0  0  0  0  0  0  0  0
  -16.3273   28.4646  -29.9406 O   0  0  0  0  0  0  0  0  0  0  0  0
  1  2  2  0
  2  3  1  0
  2  4  1  0
M  END
