
     RDKit          3D

  6  5  0  0  0  0  0  0  0  0999 V2000
  -14.3736   26.6406  -29.2709 N   0  0  0  0  0  0  0  0  0  0  0  0
  -15.3693   26.4018  -29.0345 C   0  0  0  0  0  0  0  0  0  0  0  0
  -16.5023   26.9942  -29.6558 C   0  0  0  0  0  0  0  0  0  0  0  0
  -16.3196   27.9926  -30.3217 O   0  0  0  0  0  0  0  0  0  0  0  0
  -13.1807   25.9986  -28.7992 C   0  0  0  0  0  0  0  0  0  0  0  0
  -17.8478   26.2914  -29.6152 C   0  0  0  0  0  0  0  0  0  0  0  0
  1  2  1  0
  2  3  2  3
  3  4  1  0
  1  5  1  0
  3  6  1  0
M  END
