
     RDKit          3D

 10  9  0  0  0  0  0  0  0  0999 V2000
  -14.0580   27.5517  -22.6628 O   0  0  0  0  0  0  0  0  0  0  0  0
  -15.2250   27.7932  -21.8653 C   0  0  0  0  0  0  0  0  0  0  0  0
  -15.9339   27.0833  -21.3593 O   0  0  0  0  0  0  0  0  0  0  0  0
  -15.6249   29.2879  -22.0502 C   0  0  0  0  0  0  0  0  0  0  0  0
  -14.8249   30.2137  -22.5662 O   0  0  0  0  0  0  0  0  0  0  0  0
  -16.9486   29.5861  -21.7314 N   0  0  0  0  0  0  0  0  0  0  0  0
  -17.5858   30.6006  -22.4662 C   0  0  0  0  0  0  0  0  0  0  0  0
  -18.4700   31.4354  -21.8508 C   0  0  0  0  0  0  0  0  0  0  0  0
  -19.4785   31.2858  -21.2993 O   0  0  0  0  0  0  0  0  0  0  0  0
  -18.1411   32.7435  -21.7468 O   0  0  0  0  0  0  0  0  0  0  0  0
  1  2  2  0
  2  3  1  0
  2  4  1  0
  4  5  2  0
  4  6  1  0
  6  7  1  0
  7  8  1  0
  8  9  1  0
  8 10  2  0
M  END
