
     RDKit          3D

 12 11  0  0  0  0  0  0  0  0999 V2000
  -14.3086   27.4348  -23.0117 O   0  0  0  0  0  0  0  0  0  0  0  0
  -15.3347   27.8047  -22.0259 C   0  0  0  0  0  0  0  0  0  0  0  0
  -15.9785   27.2136  -21.4280 O   0  0  0  0  0  0  0  0  0  0  0  0
  -15.5921   29.3486  -22.1282 C   0  0  0  0  0  0  0  0  0  0  0  0
  -14.8130   30.1504  -22.8501 O   0  0  0  0  0  0  0  0  0  0  0  0
  -16.7434   29.8327  -21.5919 N   0  0  0  0  0  0  0  0  0  0  0  0
  -16.9594   31.1821  -21.5190 C   0  0  0  0  0  0  0  0  0  0  0  0
  -18.2856   31.5655  -21.9537 C   0  0  0  0  0  0  0  0  0  0  0  0
  -19.0704   32.4420  -21.0021 C   0  0  0  0  0  0  0  0  0  0  0  0
  -18.7235   33.3884  -20.5814 O   0  0  0  0  0  0  0  0  0  0  0  0
  -20.0560   31.8105  -20.4312 O   0  0  0  0  0  0  0  0  0  0  0  0
  -19.0612   30.5783  -22.5742 O   0  0  0  0  0  0  0  0  0  0  0  0
  1  2  1  0
  2  3  2  0
  2  4  1  0
  4  5  2  0
  4  6  1  0
  6  7  1  0
  7  8  1  0
  8  9  1  0
  9 10  1  0
  9 11  2  0
  8 12  1  0
M  END
