
     RDKit          3D

 14 14  0  0  0  0  0  0  0  0999 V2000
  -20.1834   31.2226  -20.8955 O   0  0  0  0  0  0  0  0  0  0  0  0
  -19.7228   32.5672  -20.6705 P   0  0  0  0  0  0  0  0  0  0  0  0
  -19.5525   32.9191  -19.4075 O   0  0  0  0  0  0  0  0  0  0  0  0
  -18.3367   32.7038  -21.5145 O   0  0  0  0  0  0  0  0  0  0  0  0
  -17.8191   31.6311  -22.3732 C   0  0  0  0  0  0  0  0  0  0  0  0
  -20.7337   33.5343  -21.4479 O   0  0  0  0  0  0  0  0  0  0  0  0
  -16.9779   30.7816  -22.0674 C   0  0  0  0  0  0  0  0  0  0  0  0
  -18.7314   31.5126  -23.5130 C   0  0  0  0  0  0  0  0  0  0  0  0
  -16.4656   29.7852  -22.8553 C   0  0  0  0  0  0  0  0  0  0  0  0
  -17.1946   29.5499  -24.0469 C   0  0  0  0  0  0  0  0  0  0  0  0
  -18.2504   30.4718  -24.3921 C   0  0  0  0  0  0  0  0  0  0  0  0
  -15.2869   28.8507  -22.6274 C   0  0  0  0  0  0  0  0  0  0  0  0
  -15.5235   27.8423  -21.8394 O   0  0  0  0  0  0  0  0  0  0  0  0
  -14.3117   29.0278  -23.1602 O   0  0  0  0  0  0  0  0  0  0  0  0
  1  2  2  0
  2  3  1  0
  2  4  1  0
  4  5  1  0
  2  6  1  0
  5  7  1  0
  5  8  2  0
  7  9  2  0
  9 10  1  0
  8 11  1  0
 10 11  2  0
  9 12  1  0
 12 13  1  0
 12 14  2  0
M  END
