
     RDKit          3D

  4  3  0  0  0  0  0  0  0  0999 V2000
  -15.0905   26.7603  -29.3280 N   0  0  0  0  0  0  0  0  0  0  0  0
  -16.2009   27.1320  -29.3604 C   0  0  0  0  0  0  0  0  0  0  0  0
  -16.6310   28.2199  -29.4839 N   0  0  0  0  0  0  0  0  0  0  0  0
  -17.2135   26.2417  -29.2901 N   0  0  0  0  0  0  0  0  0  0  0  0
  1  2  1  0
  2  3  1  0
  2  4  2  0
M  END
