
     RDKit          3D

 15 14  0  0  0  0  0  0  0  0999 V2000
  -21.1416   33.9380  -20.8499 O   0  0  0  0  0  0  0  0  0  0  0  0
  -19.6562   33.5975  -20.6970 P   0  0  0  0  0  0  0  0  0  0  0  0
  -19.1990   32.8832  -21.9743 O   0  0  0  0  0  0  0  0  0  0  0  0
  -18.7666   34.8668  -20.6506 O   0  0  0  0  0  0  0  0  0  0  0  0
  -18.2440   35.8761  -21.7166 P   0  0  0  0  0  0  0  0  0  0  0  0
  -18.9925   31.4230  -22.1229 C   0  0  0  0  0  0  0  0  0  0  0  0
  -18.1418   31.0561  -23.0940 C   0  0  0  0  0  0  0  0  0  0  0  0
  -16.8510   30.6880  -22.6996 N   0  0  0  0  0  0  0  0  0  0  0  0
  -16.1733   29.8134  -22.4919 C   0  0  0  0  0  0  0  0  0  0  0  0
  -19.4365   32.8050  -19.4169 O   0  0  0  0  0  0  0  0  0  0  0  0
  -14.8177   29.7752  -22.5264 O   0  0  0  0  0  0  0  0  0  0  0  0
  -16.6843   28.4842  -22.2175 N   0  0  0  0  0  0  0  0  0  0  0  0
  -18.6631   37.1219  -21.3597 O   0  0  0  0  0  0  0  0  0  0  0  0
  -18.7889   35.2527  -22.9658 O   0  0  0  0  0  0  0  0  0  0  0  0
  -16.6998   35.7092  -21.6577 O   0  0  0  0  0  0  0  0  0  0  0  0
  1  2  2  0
  2  3  1  0
  2  4  1  0
  4  5  1  0
  3  6  1  0
  6  7  1  0
  7  8  1  0
  8  9  1  0
  2 10  1  0
  9 11  2  0
  9 12  1  0
  5 13  1  0
  5 14  2  0
  5 15  1  0
M  END
