
     RDKit          3D

 15 15  0  0  0  0  0  0  0  0999 V2000
  -16.0133   36.3771  -20.8298 O   0  0  0  0  0  0  0  0  0  0  0  0
  -17.4594   36.6700  -20.5535 P   0  0  0  0  0  0  0  0  0  0  0  0
  -17.7151   37.9793  -20.6537 O   0  0  0  0  0  0  0  0  0  0  0  0
  -18.2547   36.1279  -21.8843 O   0  0  0  0  0  0  0  0  0  0  0  0
  -18.0513   36.5233  -23.2814 P   0  0  0  0  0  0  0  0  0  0  0  0
  -18.4270   35.3866  -24.1712 O   0  0  0  0  0  0  0  0  0  0  0  0
  -18.9282   37.7464  -23.6270 O   0  0  0  0  0  0  0  0  0  0  0  0
  -17.8453   35.8998  -19.3318 O   0  0  0  0  0  0  0  0  0  0  0  0
  -16.5492   36.9298  -23.4799 O   0  0  0  0  0  0  0  0  0  0  0  0
  -17.4595   34.6723  -25.0378 C   0  0  0  0  0  0  0  0  0  0  0  0
  -17.9402   34.4613  -26.3220 C   0  0  0  0  0  0  0  0  0  0  0  0
  -16.4654   33.9703  -24.3932 C   0  0  0  0  0  0  0  0  0  0  0  0
  -16.9532   33.7541  -27.1620 C   0  0  0  0  0  0  0  0  0  0  0  0
  -15.8615   33.0882  -26.6009 C   0  0  0  0  0  0  0  0  0  0  0  0
  -15.6700   33.1283  -25.0985 C   0  0  0  0  0  0  0  0  0  0  0  0
  1  2  1  0
  2  3  2  0
  2  4  1  0
  4  5  1  0
  5  6  1  0
  5  7  2  0
  2  8  1  0
  5  9  1  0
  6 10  1  0
 10 11  1  0
 10 12  2  0
 11 13  2  0
 13 14  1  0
 12 15  1  0
 14 15  2  0
M  END
