
     RDKit          3D

 17 16  0  0  0  0  0  0  0  0999 V2000
  -20.1834   31.2226  -20.8955 O   0  0  0  0  0  0  0  0  0  0  0  0
  -19.5807   32.4553  -20.7890 P   0  0  0  0  0  0  0  0  0  0  0  0
  -18.4150   32.5227  -21.7401 O   0  0  0  0  0  0  0  0  0  0  0  0
  -18.2457   33.1956  -23.0257 C   0  0  0  0  0  0  0  0  0  0  0  0
  -17.4929   32.5500  -23.9669 C   0  0  0  0  0  0  0  0  0  0  0  0
  -16.5941   33.1300  -24.6677 C   0  0  0  0  0  0  0  0  0  0  0  0
  -19.2436   32.9370  -19.5040 O   0  0  0  0  0  0  0  0  0  0  0  0
  -20.5440   33.6467  -21.3564 O   0  0  0  0  0  0  0  0  0  0  0  0
  -15.9598   32.4679  -25.7423 C   0  0  0  0  0  0  0  0  0  0  0  0
  -15.8977   34.3579  -24.2426 C   0  0  0  0  0  0  0  0  0  0  0  0
  -14.7660   34.6981  -24.6237 O   0  0  0  0  0  0  0  0  0  0  0  0
  -16.5851   35.1324  -23.5298 O   0  0  0  0  0  0  0  0  0  0  0  0
  -16.0988   33.0410  -26.9576 C   0  0  0  0  0  0  0  0  0  0  0  0
  -17.4836   31.0407  -23.9604 C   0  0  0  0  0  0  0  0  0  0  0  0
  -17.9393   30.3929  -22.7714 O   0  0  0  0  0  0  0  0  0  0  0  0
  -16.7101   34.3889  -27.0017 C   0  0  0  0  0  0  0  0  0  0  0  0
  -16.8496   32.1941  -27.8095 C   0  0  0  0  0  0  0  0  0  0  0  0
  1  2  2  0
  2  3  1  0
  3  4  1  0
  4  5  1  0
  5  6  2  3
  2  7  1  0
  2  8  1  0
  6  9  1  0
  6 10  1  0
 10 11  1  0
 10 12  2  0
  9 13  1  0
  5 14  1  0
 14 15  1  0
 13 16  1  0
 13 17  1  0
M  END
