
     RDKit          3D

  4  3  0  0  0  0  0  0  0  0999 V2000
  -13.7023   26.9181  -29.4956 O   0  0  0  0  0  0  0  0  0  0  0  0
  -15.0043   26.8068  -29.1938 C   0  0  0  0  0  0  0  0  0  0  0  0
  -15.9148   27.7076  -29.6201 C   0  0  0  0  0  0  0  0  0  0  0  0
  -17.2788   27.2852  -29.7495 O   0  0  0  0  0  0  0  0  0  0  0  0
  1  2  1  0
  2  3  1  0
  3  4  1  0
M  END
