
     RDKit          3D

 17 17  0  0  0  0  0  0  0  0999 V2000
  -13.5851   27.1653  -22.3389 O   0  0  0  0  0  0  0  0  0  0  0  0
  -14.6401   27.1406  -21.8939 C   0  0  0  0  0  0  0  0  0  0  0  0
  -15.5069   28.3654  -22.2920 C   0  0  0  0  0  0  0  0  0  0  0  0
  -14.9634   29.5950  -22.4673 O   0  0  0  0  0  0  0  0  0  0  0  0
  -15.8061   30.7207  -22.6722 C   0  0  0  0  0  0  0  0  0  0  0  0
  -15.5668   31.4467  -23.7142 C   0  0  0  0  0  0  0  0  0  0  0  0
  -16.8142   30.8107  -21.8419 C   0  0  0  0  0  0  0  0  0  0  0  0
  -17.7109   31.7416  -22.2040 C   0  0  0  0  0  0  0  0  0  0  0  0
  -18.9499   31.9357  -21.3360 C   0  0  0  0  0  0  0  0  0  0  0  0
  -20.0266   31.4587  -21.4394 O   0  0  0  0  0  0  0  0  0  0  0  0
  -18.8081   32.7545  -20.2871 O   0  0  0  0  0  0  0  0  0  0  0  0
  -17.5047   32.5276  -23.2203 C   0  0  0  0  0  0  0  0  0  0  0  0
  -18.5030   33.6304  -23.5711 N   0  0  0  0  0  0  0  0  0  0  0  0
  -19.4176   33.6000  -24.2306 C   0  0  0  0  0  0  0  0  0  0  0  0
  -14.3589   31.2588  -24.4861 O   0  0  0  0  0  0  0  0  0  0  0  0
  -16.4076   32.4502  -24.0581 C   0  0  0  0  0  0  0  0  0  0  0  0
  -20.1197   34.8259  -24.5655 N   0  0  0  0  0  0  0  0  0  0  0  0
  1  2  2  0
  2  3  1  0
  3  4  1  0
  4  5  1  0
  5  6  1  0
  5  7  2  0
  7  8  1  0
  8  9  1  0
  9 10  2  0
  9 11  1  0
  8 12  2  0
 12 13  1  0
 13 14  2  3
  6 15  1  0
  6 16  2  0
 12 16  1  0
 14 17  1  0
M  END
