
     RDKit          3D

 18 17  0  0  0  0  0  0  0  0999 V2000
  -16.0915   36.1588  -20.2411 O   0  0  0  0  0  0  0  0  0  0  0  0
  -17.4208   36.6975  -20.4183 P   0  0  0  0  0  0  0  0  0  0  0  0
  -17.9949   36.2526  -21.7155 O   0  0  0  0  0  0  0  0  0  0  0  0
  -18.3212   36.1300  -19.2725 O   0  0  0  0  0  0  0  0  0  0  0  0
  -17.3359   38.1974  -20.5369 O   0  0  0  0  0  0  0  0  0  0  0  0
  -17.1818   36.0084  -23.0006 P   0  0  0  0  0  0  0  0  0  0  0  0
  -15.8944   36.2745  -22.8423 O   0  0  0  0  0  0  0  0  0  0  0  0
  -17.8299   36.9724  -24.0424 O   0  0  0  0  0  0  0  0  0  0  0  0
  -17.4457   34.6477  -23.5443 O   0  0  0  0  0  0  0  0  0  0  0  0
  -18.4584   33.7655  -23.6316 C   0  0  0  0  0  0  0  0  0  0  0  0
  -18.0224   32.3730  -23.6214 C   0  0  0  0  0  0  0  0  0  0  0  0
  -18.3348   31.7049  -22.5147 C   0  0  0  0  0  0  0  0  0  0  0  0
  -18.3118   30.4273  -22.4620 O   0  0  0  0  0  0  0  0  0  0  0  0
  -18.8801   32.2570  -21.3535 O   0  0  0  0  0  0  0  0  0  0  0  0
  -16.5861   32.1272  -23.9160 C   0  0  0  0  0  0  0  0  0  0  0  0
  -19.9047   31.8889  -20.3979 C   0  0  0  0  0  0  0  0  0  0  0  0
  -20.4177   30.9645  -20.5826 O   0  0  0  0  0  0  0  0  0  0  0  0
  -20.2369   33.0116  -19.6036 O   0  0  0  0  0  0  0  0  0  0  0  0
  1  2  1  0
  2  3  1  0
  2  4  2  0
  2  5  1  0
  3  6  1  0
  6  7  1  0
  6  8  2  0
  6  9  1  0
  9 10  1  0
 10 11  1  0
 11 12  1  0
 12 13  2  0
 12 14  1  0
 11 15  1  0
 14 16  1  0
 16 17  2  0
 16 18  1  0
M  END
