
     RDKit          3D

 18 17  0  0  0  0  0  0  0  0999 V2000
  -14.4790   27.3998  -22.7127 O   0  0  0  0  0  0  0  0  0  0  0  0
  -15.4751   27.9882  -21.9296 C   0  0  0  0  0  0  0  0  0  0  0  0
  -15.5912   29.3686  -22.1361 C   0  0  0  0  0  0  0  0  0  0  0  0
  -14.7021   30.0897  -22.7793 O   0  0  0  0  0  0  0  0  0  0  0  0
  -16.8981   29.8901  -22.0829 N   0  0  0  0  0  0  0  0  0  0  0  0
  -16.4070   27.4173  -21.3525 O   0  0  0  0  0  0  0  0  0  0  0  0
  -17.1850   31.2376  -22.4203 C   0  0  0  0  0  0  0  0  0  0  0  0
  -18.6956   31.4636  -22.3810 C   0  0  0  0  0  0  0  0  0  0  0  0
  -17.1159   31.3643  -24.0072 C   0  0  0  0  0  0  0  0  0  0  0  0
  -17.1938   32.7699  -24.4555 C   0  0  0  0  0  0  0  0  0  0  0  0
  -19.2418   31.1444  -21.0785 O   0  0  0  0  0  0  0  0  0  0  0  0
  -16.8489   32.9756  -25.7407 C   0  0  0  0  0  0  0  0  0  0  0  0
  -16.5107   32.1035  -26.7331 C   0  0  0  0  0  0  0  0  0  0  0  0
  -19.4996   31.9742  -23.0614 O   0  0  0  0  0  0  0  0  0  0  0  0
  -16.8424   34.5679  -26.0655 C   0  0  0  0  0  0  0  0  0  0  0  0
  -16.5692   35.3712  -25.1552 C   0  0  0  0  0  0  0  0  0  0  0  0
  -15.8143   34.8135  -27.2666 C   0  0  0  0  0  0  0  0  0  0  0  0
  -18.3687   34.7877  -26.5407 C   0  0  0  0  0  0  0  0  0  0  0  0
  1  2  2  0
  2  3  1  0
  3  4  2  0
  3  5  1  0
  2  6  1  0
  5  7  1  0
  7  8  1  0
  7  9  1  0
  9 10  1  0
  8 11  1  0
 10 12  2  3
 12 13  1  0
  8 14  2  0
 12 15  1  0
 15 16  1  0
 15 17  1  0
 15 18  1  0
M  END
