
     RDKit          3D

 18 17  0  0  0  0  0  0  0  0999 V2000
  -21.1416   33.9380  -20.8499 O   0  0  0  0  0  0  0  0  0  0  0  0
  -19.6562   33.5975  -20.6970 P   0  0  0  0  0  0  0  0  0  0  0  0
  -19.1990   32.8832  -21.9743 O   0  0  0  0  0  0  0  0  0  0  0  0
  -18.7666   34.8668  -20.6506 O   0  0  0  0  0  0  0  0  0  0  0  0
  -18.2440   35.8761  -21.7166 P   0  0  0  0  0  0  0  0  0  0  0  0
  -18.5754   37.1797  -21.2933 O   0  0  0  0  0  0  0  0  0  0  0  0
  -18.7812   31.4431  -22.0169 C   0  0  0  0  0  0  0  0  0  0  0  0
  -19.5315   32.6191  -19.5208 O   0  0  0  0  0  0  0  0  0  0  0  0
  -18.9762   35.3629  -22.9493 O   0  0  0  0  0  0  0  0  0  0  0  0
  -16.7737   35.6904  -21.8656 O   0  0  0  0  0  0  0  0  0  0  0  0
  -19.3298   30.8378  -23.1044 C   0  0  0  0  0  0  0  0  0  0  0  0
  -18.3385   30.9055  -24.2736 C   0  0  0  0  0  0  0  0  0  0  0  0
  -18.7721   31.8179  -25.2923 C   0  0  0  0  0  0  0  0  0  0  0  0
  -16.9416   31.2053  -23.6941 C   0  0  0  0  0  0  0  0  0  0  0  0
  -16.6379   30.3377  -22.7765 O   0  0  0  0  0  0  0  0  0  0  0  0
  -15.4708   29.5789  -22.7422 C   0  0  0  0  0  0  0  0  0  0  0  0
  -14.4468   30.0252  -23.1060 O   0  0  0  0  0  0  0  0  0  0  0  0
  -15.5709   28.3335  -22.0522 C   0  0  0  0  0  0  0  0  0  0  0  0
  1  2  2  0
  2  3  1  0
  2  4  1  0
  4  5  1  0
  5  6  1  0
  3  7  1  0
  2  8  1  0
  5  9  2  0
  5 10  1  0
  7 11  1  0
 11 12  1  0
 12 13  1  0
 12 14  1  0
 14 15  1  0
 15 16  1  0
 16 17  2  0
 16 18  1  0
M  END
