
     RDKit          3D

 18 18  0  0  0  0  0  0  0  0999 V2000
  -14.1657   27.5802  -22.5909 O   0  0  0  0  0  0  0  0  0  0  0  0
  -15.4164   28.0380  -22.1186 C   0  0  0  0  0  0  0  0  0  0  0  0
  -15.5517   29.4377  -22.2564 N   0  0  0  0  0  0  0  0  0  0  0  0
  -14.7063   30.3392  -22.7363 C   0  0  0  0  0  0  0  0  0  0  0  0
  -15.5514   31.3382  -23.5136 C   0  0  0  0  0  0  0  0  0  0  0  0
  -15.0216   32.1414  -24.4066 N   0  0  0  0  0  0  0  0  0  0  0  0
  -16.9894   31.5183  -23.1511 C   0  0  0  0  0  0  0  0  0  0  0  0
  -17.7350   32.4569  -23.8168 C   0  0  0  0  0  0  0  0  0  0  0  0
  -15.7779   33.1215  -25.0087 C   0  0  0  0  0  0  0  0  0  0  0  0
  -17.1231   33.2685  -24.8134 C   0  0  0  0  0  0  0  0  0  0  0  0
  -17.9160   34.2841  -25.6253 C   0  0  0  0  0  0  0  0  0  0  0  0
  -16.2672   27.3301  -21.4111 N   0  0  0  0  0  0  0  0  0  0  0  0
  -17.7177   35.5534  -25.2921 C   0  0  0  0  0  0  0  0  0  0  0  0
  -17.3234   35.9245  -24.0612 N   0  0  0  0  0  0  0  0  0  0  0  0
  -18.1754   36.5437  -26.0578 O   0  0  0  0  0  0  0  0  0  0  0  0
  -17.3193   37.3459  -23.6602 C   0  0  0  0  0  0  0  0  0  0  0  0
  -18.6984   37.5753  -23.1632 O   0  0  0  0  0  0  0  0  0  0  0  0
  -16.4255   37.5715  -22.5031 O   0  0  0  0  0  0  0  0  0  0  0  0
  1  2  2  0
  2  3  1  0
  3  4  1  0
  4  5  1  0
  5  6  2  0
  5  7  1  0
  7  8  2  0
  6  9  1  0
  8 10  1  0
  9 10  2  0
 10 11  1  0
  2 12  1  0
 11 13  1  0
 13 14  1  0
 13 15  2  0
 14 16  1  0
 16 17  1  0
 16 18  1  0
M  END
