
     RDKit          3D

 18 18  0  0  0  0  0  0  0  0999 V2000
  -15.9124   36.2396  -19.9440 O   0  0  0  0  0  0  0  0  0  0  0  0
  -17.2420   36.5647  -20.2307 P   0  0  0  0  0  0  0  0  0  0  0  0
  -17.3856   37.9694  -20.5566 O   0  0  0  0  0  0  0  0  0  0  0  0
  -17.4476   35.9347  -21.7841 O   0  0  0  0  0  0  0  0  0  0  0  0
  -18.3149   35.9399  -19.4578 O   0  0  0  0  0  0  0  0  0  0  0  0
  -18.4632   35.1593  -22.3673 C   0  0  0  0  0  0  0  0  0  0  0  0
  -18.5403   35.3256  -23.6274 C   0  0  0  0  0  0  0  0  0  0  0  0
  -17.5657   36.0374  -24.3500 O   0  0  0  0  0  0  0  0  0  0  0  0
  -16.9895   35.5643  -25.6298 C   0  0  0  0  0  0  0  0  0  0  0  0
  -17.9853   35.1574  -26.4477 O   0  0  0  0  0  0  0  0  0  0  0  0
  -18.2601   33.8560  -26.4451 C   0  0  0  0  0  0  0  0  0  0  0  0
  -15.7716   34.7722  -25.4497 C   0  0  0  0  0  0  0  0  0  0  0  0
  -16.1915   33.3651  -25.2152 C   0  0  0  0  0  0  0  0  0  0  0  0
  -17.2076   32.8643  -26.1089 C   0  0  0  0  0  0  0  0  0  0  0  0
  -17.7146   31.6697  -25.7327 O   0  0  0  0  0  0  0  0  0  0  0  0
  -15.2217   32.4369  -25.0802 O   0  0  0  0  0  0  0  0  0  0  0  0
  -14.8627   35.2229  -24.5924 O   0  0  0  0  0  0  0  0  0  0  0  0
  -19.3473   33.5092  -27.0513 O   0  0  0  0  0  0  0  0  0  0  0  0
  1  2  2  0
  2  3  1  0
  2  4  1  0
  2  5  1  0
  4  6  1  0
  6  7  1  0
  7  8  1  0
  8  9  1  0
  9 10  1  0
 10 11  1  0
  9 12  1  0
 12 13  1  0
 11 14  1  0
 13 14  1  0
 14 15  1  0
 13 16  1  0
 12 17  1  0
 11 18  2  0
M  END
