
     RDKit          3D

 18 18  0  0  0  0  0  0  0  0999 V2000
  -13.5981   27.2099  -22.2648 O   0  0  0  0  0  0  0  0  0  0  0  0
  -14.9313   27.6713  -22.0695 C   0  0  0  0  0  0  0  0  0  0  0  0
  -15.9098   27.1000  -21.8053 N   0  0  0  0  0  0  0  0  0  0  0  0
  -15.0463   29.2633  -22.1111 N   0  0  0  0  0  0  0  0  0  0  0  0
  -15.9190   29.9639  -22.3911 C   0  0  0  0  0  0  0  0  0  0  0  0
  -15.5558   31.2185  -22.9924 C   0  0  0  0  0  0  0  0  0  0  0  0
  -17.1759   29.7256  -22.2200 O   0  0  0  0  0  0  0  0  0  0  0  0
  -14.4661   31.1866  -23.8889 O   0  0  0  0  0  0  0  0  0  0  0  0
  -16.7548   31.8531  -23.8990 C   0  0  0  0  0  0  0  0  0  0  0  0
  -17.3092   32.9020  -23.4477 N   0  0  0  0  0  0  0  0  0  0  0  0
  -18.6127   33.0122  -22.9243 C   0  0  0  0  0  0  0  0  0  0  0  0
  -16.7812   34.2020  -23.6283 C   0  0  0  0  0  0  0  0  0  0  0  0
  -17.5854   35.1292  -22.9400 C   0  0  0  0  0  0  0  0  0  0  0  0
  -19.0153   31.9226  -21.8825 C   0  0  0  0  0  0  0  0  0  0  0  0
  -15.9132   34.5070  -24.4833 O   0  0  0  0  0  0  0  0  0  0  0  0
  -18.5565   34.4129  -22.2797 C   0  0  0  0  0  0  0  0  0  0  0  0
  -20.2074   31.9510  -21.4606 O   0  0  0  0  0  0  0  0  0  0  0  0
  -17.9491   36.2818  -23.5516 N   0  0  0  0  0  0  0  0  0  0  0  0
  1  2  2  0
  2  3  1  0
  2  4  1  0
  4  5  1  0
  5  6  1  0
  5  7  2  0
  6  8  1  0
  6  9  1  0
  9 10  1  0
 10 11  1  0
 10 12  1  0
 12 13  1  0
 11 14  1  0
 12 15  2  0
 11 16  1  0
 13 16  1  0
 14 17  1  0
 13 18  1  0
M  END
