
     RDKit          3D

 19 18  0  0  0  0  0  0  0  0999 V2000
  -20.1834   31.2226  -20.8955 O   0  0  0  0  0  0  0  0  0  0  0  0
  -19.7228   32.5672  -20.6705 P   0  0  0  0  0  0  0  0  0  0  0  0
  -19.4589   32.8832  -19.4084 O   0  0  0  0  0  0  0  0  0  0  0  0
  -20.8625   33.4915  -21.2573 O   0  0  0  0  0  0  0  0  0  0  0  0
  -18.5745   32.7683  -21.7236 O   0  0  0  0  0  0  0  0  0  0  0  0
  -18.1724   31.7477  -22.6752 C   0  0  0  0  0  0  0  0  0  0  0  0
  -17.2936   30.8570  -22.4909 C   0  0  0  0  0  0  0  0  0  0  0  0
  -18.0458   32.5497  -23.9694 C   0  0  0  0  0  0  0  0  0  0  0  0
  -16.9800   33.2863  -24.0941 O   0  0  0  0  0  0  0  0  0  0  0  0
  -17.2492   29.7224  -22.9354 O   0  0  0  0  0  0  0  0  0  0  0  0
  -17.0113   34.7338  -24.5921 P   0  0  0  0  0  0  0  0  0  0  0  0
  -16.1113   31.0850  -21.8464 N   0  0  0  0  0  0  0  0  0  0  0  0
  -15.0630   30.1600  -21.6462 C   0  0  0  0  0  0  0  0  0  0  0  0
  -15.9887   34.9294  -25.4355 O   0  0  0  0  0  0  0  0  0  0  0  0
  -15.3815   28.7709  -22.1348 C   0  0  0  0  0  0  0  0  0  0  0  0
  -18.2622   35.0483  -25.2978 O   0  0  0  0  0  0  0  0  0  0  0  0
  -14.3894   28.2547  -22.6146 O   0  0  0  0  0  0  0  0  0  0  0  0
  -16.4041   28.1418  -21.8482 O   0  0  0  0  0  0  0  0  0  0  0  0
  -16.8477   35.8532  -23.5292 O   0  0  0  0  0  0  0  0  0  0  0  0
  1  2  1  0
  2  3  1  0
  2  4  2  0
  2  5  1  0
  5  6  1  0
  6  7  1  0
  6  8  1  0
  8  9  1  0
  7 10  2  0
  9 11  1  0
  7 12  1  0
 12 13  1  0
 11 14  2  0
 13 15  1  0
 11 16  1  0
 15 17  2  0
 15 18  1  0
 11 19  1  0
M  END
