
     RDKit          3D

 19 18  0  0  0  0  0  0  0  0999 V2000
  -13.6188   26.9173  -22.1917 O   0  0  0  0  0  0  0  0  0  0  0  0
  -14.8138   27.4730  -22.2172 C   0  0  0  0  0  0  0  0  0  0  0  0
  -15.8714   27.3019  -22.0687 N   0  0  0  0  0  0  0  0  0  0  0  0
  -14.7264   29.0906  -22.4272 N   0  0  0  0  0  0  0  0  0  0  0  0
  -15.7513   29.8921  -22.2270 C   0  0  0  0  0  0  0  0  0  0  0  0
  -15.4978   31.1811  -22.9164 C   0  0  0  0  0  0  0  0  0  0  0  0
  -14.2985   31.3869  -23.5632 O   0  0  0  0  0  0  0  0  0  0  0  0
  -16.5815   31.9713  -23.1918 N   0  0  0  0  0  0  0  0  0  0  0  0
  -17.8901   31.7352  -22.6063 C   0  0  0  0  0  0  0  0  0  0  0  0
  -18.6557   31.0340  -22.9758 O   0  0  0  0  0  0  0  0  0  0  0  0
  -18.3287   32.8604  -21.7270 C   0  0  0  0  0  0  0  0  0  0  0  0
  -18.4528   34.0545  -22.2645 O   0  0  0  0  0  0  0  0  0  0  0  0
  -17.8201   35.4405  -21.9815 P   0  0  0  0  0  0  0  0  0  0  0  0
  -19.7484   32.3781  -21.1612 C   0  0  0  0  0  0  0  0  0  0  0  0
  -20.2475   33.2578  -20.2766 O   0  0  0  0  0  0  0  0  0  0  0  0
  -18.8628   36.1393  -21.4450 O   0  0  0  0  0  0  0  0  0  0  0  0
  -16.5933   35.1749  -21.1206 O   0  0  0  0  0  0  0  0  0  0  0  0
  -19.9740   31.1998  -20.7244 O   0  0  0  0  0  0  0  0  0  0  0  0
  -17.4423   35.9640  -23.3516 O   0  0  0  0  0  0  0  0  0  0  0  0
  1  2  2  0
  2  3  1  0
  2  4  1  0
  4  5  1  0
  5  6  1  0
  6  7  2  0
  6  8  1  0
  8  9  1  0
  9 10  2  0
  9 11  1  0
 11 12  1  0
 12 13  1  0
 11 14  1  0
 14 15  1  0
 13 16  1  0
 13 17  1  0
 14 18  2  0
 13 19  2  0
M  END
