
     RDKit          3D

 19 18  0  0  0  0  0  0  0  0999 V2000
  -16.0915   36.1588  -20.2411 O   0  0  0  0  0  0  0  0  0  0  0  0
  -17.4208   36.6975  -20.4183 P   0  0  0  0  0  0  0  0  0  0  0  0
  -17.9949   36.2526  -21.7155 O   0  0  0  0  0  0  0  0  0  0  0  0
  -18.3212   36.1300  -19.2725 O   0  0  0  0  0  0  0  0  0  0  0  0
  -17.3359   38.1974  -20.5369 O   0  0  0  0  0  0  0  0  0  0  0  0
  -17.1818   36.0084  -23.0006 P   0  0  0  0  0  0  0  0  0  0  0  0
  -15.8944   36.2745  -22.8423 O   0  0  0  0  0  0  0  0  0  0  0  0
  -17.8299   36.9724  -24.0424 O   0  0  0  0  0  0  0  0  0  0  0  0
  -17.4457   34.6477  -23.5443 O   0  0  0  0  0  0  0  0  0  0  0  0
  -18.4584   33.7655  -23.6316 C   0  0  0  0  0  0  0  0  0  0  0  0
  -18.0224   32.3730  -23.6214 C   0  0  0  0  0  0  0  0  0  0  0  0
  -18.3348   31.7049  -22.5147 C   0  0  0  0  0  0  0  0  0  0  0  0
  -18.3118   30.4273  -22.4620 O   0  0  0  0  0  0  0  0  0  0  0  0
  -18.8801   32.2570  -21.3535 O   0  0  0  0  0  0  0  0  0  0  0  0
  -18.4573   31.8135  -24.9573 C   0  0  0  0  0  0  0  0  0  0  0  0
  -16.5155   32.1865  -23.7568 O   0  0  0  0  0  0  0  0  0  0  0  0
  -19.8893   31.8896  -20.4156 C   0  0  0  0  0  0  0  0  0  0  0  0
  -20.4348   31.0024  -20.5534 O   0  0  0  0  0  0  0  0  0  0  0  0
  -19.7118   32.6701  -19.2976 O   0  0  0  0  0  0  0  0  0  0  0  0
  1  2  1  0
  2  3  1  0
  2  4  2  0
  2  5  1  0
  3  6  1  0
  6  7  1  0
  6  8  2  0
  6  9  1  0
  9 10  1  0
 10 11  1  0
 11 12  1  0
 12 13  2  0
 12 14  1  0
 11 15  1  0
 11 16  1  0
 14 17  1  0
 17 18  1  0
 17 19  2  0
M  END
