
     RDKit          3D

 19 19  0  0  0  0  0  0  0  0999 V2000
  -13.5851   27.1653  -22.3389 O   0  0  0  0  0  0  0  0  0  0  0  0
  -14.6401   27.1406  -21.8939 C   0  0  0  0  0  0  0  0  0  0  0  0
  -15.5069   28.3654  -22.2920 C   0  0  0  0  0  0  0  0  0  0  0  0
  -14.9634   29.5950  -22.4673 O   0  0  0  0  0  0  0  0  0  0  0  0
  -15.8061   30.7207  -22.6722 C   0  0  0  0  0  0  0  0  0  0  0  0
  -15.5668   31.4467  -23.7142 C   0  0  0  0  0  0  0  0  0  0  0  0
  -16.8142   30.8107  -21.8419 C   0  0  0  0  0  0  0  0  0  0  0  0
  -17.7109   31.7416  -22.2040 C   0  0  0  0  0  0  0  0  0  0  0  0
  -18.9499   31.9357  -21.3360 C   0  0  0  0  0  0  0  0  0  0  0  0
  -20.0266   31.4587  -21.4394 O   0  0  0  0  0  0  0  0  0  0  0  0
  -18.8081   32.7545  -20.2871 O   0  0  0  0  0  0  0  0  0  0  0  0
  -16.3550   32.4782  -24.0471 C   0  0  0  0  0  0  0  0  0  0  0  0
  -16.0696   33.4087  -25.1196 N   0  0  0  0  0  0  0  0  0  0  0  0
  -17.4884   32.7050  -23.2428 C   0  0  0  0  0  0  0  0  0  0  0  0
  -16.9566   34.1458  -25.8632 C   0  0  0  0  0  0  0  0  0  0  0  0
  -16.3844   34.7975  -26.9490 C   0  0  0  0  0  0  0  0  0  0  0  0
  -18.1870   34.2988  -25.5546 O   0  0  0  0  0  0  0  0  0  0  0  0
  -16.4067   34.1171  -28.2270 C   0  0  0  0  0  0  0  0  0  0  0  0
  -15.7142   34.6660  -29.3106 C   0  0  0  0  0  0  0  0  0  0  0  0
  1  2  2  0
  2  3  1  0
  3  4  1  0
  4  5  1  0
  5  6  1  0
  5  7  2  0
  7  8  1  0
  8  9  1  0
  9 10  2  0
  9 11  1  0
  6 12  2  0
 12 13  1  0
  8 14  2  0
 12 14  1  0
 13 15  1  0
 15 16  1  0
 15 17  2  0
 16 18  2  3
 18 19  1  0
M  END
