
     RDKit          3D

 19 20  0  0  0  0  0  0  0  0999 V2000
  -13.5851   27.1653  -22.3389 O   0  0  0  0  0  0  0  0  0  0  0  0
  -14.6401   27.1406  -21.8939 C   0  0  0  0  0  0  0  0  0  0  0  0
  -15.5069   28.3654  -22.2920 C   0  0  0  0  0  0  0  0  0  0  0  0
  -14.9634   29.5950  -22.4673 O   0  0  0  0  0  0  0  0  0  0  0  0
  -15.8061   30.7207  -22.6722 C   0  0  0  0  0  0  0  0  0  0  0  0
  -15.5668   31.4467  -23.7142 C   0  0  0  0  0  0  0  0  0  0  0  0
  -16.8142   30.8107  -21.8419 C   0  0  0  0  0  0  0  0  0  0  0  0
  -17.7109   31.7416  -22.2040 C   0  0  0  0  0  0  0  0  0  0  0  0
  -18.9499   31.9357  -21.3360 C   0  0  0  0  0  0  0  0  0  0  0  0
  -20.0266   31.4587  -21.4394 O   0  0  0  0  0  0  0  0  0  0  0  0
  -18.8081   32.7545  -20.2871 O   0  0  0  0  0  0  0  0  0  0  0  0
  -16.3550   32.4782  -24.0471 C   0  0  0  0  0  0  0  0  0  0  0  0
  -17.4963   32.7006  -23.2486 C   0  0  0  0  0  0  0  0  0  0  0  0
  -16.0671   33.3875  -25.0940 C   0  0  0  0  0  0  0  0  0  0  0  0
  -16.0452   33.0860  -26.3360 N   0  0  0  0  0  0  0  0  0  0  0  0
  -15.4352   34.6423  -24.7733 C   0  0  0  0  0  0  0  0  0  0  0  0
  -15.8469   34.2639  -27.1135 C   0  0  0  0  0  0  0  0  0  0  0  0
  -15.4315   35.2757  -26.2394 N   0  0  0  0  0  0  0  0  0  0  0  0
  -15.9873   34.3152  -28.5838 C   0  0  0  0  0  0  0  0  0  0  0  0
  1  2  2  0
  2  3  1  0
  3  4  1  0
  4  5  1  0
  5  6  1  0
  5  7  2  0
  7  8  1  0
  8  9  1  0
  9 10  2  0
  9 11  1  0
  6 12  2  0
  8 13  2  0
 12 13  1  0
 12 14  1  0
 14 15  2  0
 14 16  1  0
 15 17  1  0
 16 18  1  0
 17 18  2  0
 17 19  1  0
M  END
