
     RDKit          3D

 19 18  0  0  0  0  0  0  0  0999 V2000
  -20.3137   31.1024  -20.9100 O   0  0  0  0  0  0  0  0  0  0  0  0
  -19.3440   32.0404  -21.1484 P   0  0  0  0  0  0  0  0  0  0  0  0
  -20.1181   33.1685  -21.7714 O   0  0  0  0  0  0  0  0  0  0  0  0
  -18.2591   31.4860  -22.1174 O   0  0  0  0  0  0  0  0  0  0  0  0
  -18.0752   31.5042  -23.8575 P   0  0  0  0  0  0  0  0  0  0  0  0
  -18.9509   30.7686  -24.3521 O   0  0  0  0  0  0  0  0  0  0  0  0
  -16.5642   30.9491  -23.8941 O   0  0  0  0  0  0  0  0  0  0  0  0
  -18.6904   32.6459  -19.9366 O   0  0  0  0  0  0  0  0  0  0  0  0
  -17.9758   33.0144  -24.3274 O   0  0  0  0  0  0  0  0  0  0  0  0
  -17.1461   33.4540  -25.4527 C   0  0  0  0  0  0  0  0  0  0  0  0
  -17.7348   33.3712  -26.6407 C   0  0  0  0  0  0  0  0  0  0  0  0
  -16.9472   33.5728  -27.8224 C   0  0  0  0  0  0  0  0  0  0  0  0
  -18.4784   32.1506  -26.8554 O   0  0  0  0  0  0  0  0  0  0  0  0
  -16.5051   34.7734  -24.9193 C   0  0  0  0  0  0  0  0  0  0  0  0
  -15.8753   34.6343  -23.7619 O   0  0  0  0  0  0  0  0  0  0  0  0
  -17.5317   35.8154  -24.9844 C   0  0  0  0  0  0  0  0  0  0  0  0
  -17.8983   36.3811  -25.9906 O   0  0  0  0  0  0  0  0  0  0  0  0
  -16.0022   34.6425  -27.8610 O   0  0  0  0  0  0  0  0  0  0  0  0
  -17.8649   36.4531  -23.8271 O   0  0  0  0  0  0  0  0  0  0  0  0
  1  2  1  0
  2  3  2  0
  2  4  1  0
  4  5  1  0
  5  6  1  0
  5  7  2  0
  2  8  1  0
  5  9  1  0
  9 10  1  0
 10 11  1  0
 11 12  1  0
 11 13  1  0
 10 14  1  0
 14 15  1  0
 14 16  1  0
 16 17  2  0
 12 18  1  0
 16 19  1  0
M  END
