
     RDKit          3D

 19 19  0  0  0  0  0  0  0  0999 V2000
  -20.3137   31.1024  -20.9100 O   0  0  0  0  0  0  0  0  0  0  0  0
  -19.7282   32.4050  -20.6891 P   0  0  0  0  0  0  0  0  0  0  0  0
  -18.5428   32.5140  -21.6122 O   0  0  0  0  0  0  0  0  0  0  0  0
  -18.5002   32.3026  -23.0398 C   0  0  0  0  0  0  0  0  0  0  0  0
  -17.9313   33.3345  -23.7432 C   0  0  0  0  0  0  0  0  0  0  0  0
  -18.6841   34.2223  -24.2994 O   0  0  0  0  0  0  0  0  0  0  0  0
  -18.4433   35.6414  -24.1781 C   0  0  0  0  0  0  0  0  0  0  0  0
  -20.7463   33.4768  -21.2117 O   0  0  0  0  0  0  0  0  0  0  0  0
  -19.3083   32.6208  -19.2958 O   0  0  0  0  0  0  0  0  0  0  0  0
  -16.7163   33.2001  -24.5354 C   0  0  0  0  0  0  0  0  0  0  0  0
  -16.0341   34.4177  -24.8978 C   0  0  0  0  0  0  0  0  0  0  0  0
  -18.2047   36.1125  -22.7258 C   0  0  0  0  0  0  0  0  0  0  0  0
  -17.0014   35.5180  -25.2600 C   0  0  0  0  0  0  0  0  0  0  0  0
  -17.1447   36.2834  -26.1541 O   0  0  0  0  0  0  0  0  0  0  0  0
  -18.9541   35.6469  -21.9366 O   0  0  0  0  0  0  0  0  0  0  0  0
  -18.4232   30.8978  -23.4641 C   0  0  0  0  0  0  0  0  0  0  0  0
  -16.9914   32.3671  -25.7335 C   0  0  0  0  0  0  0  0  0  0  0  0
  -17.1929   36.9219  -22.5840 O   0  0  0  0  0  0  0  0  0  0  0  0
  -15.1298   34.2817  -26.0238 O   0  0  0  0  0  0  0  0  0  0  0  0
  1  2  2  0
  2  3  1  0
  3  4  1  0
  4  5  1  0
  5  6  1  0
  6  7  1  0
  2  8  1  0
  2  9  1  0
  5 10  1  0
 10 11  1  0
  7 12  1  0
  7 13  1  0
 11 13  1  0
 13 14  2  0
 12 15  1  0
  4 16  1  0
 10 17  1  0
 12 18  2  0
 11 19  1  0
M  END
