
     RDKit          3D

 20 20  0  0  0  0  0  0  0  0999 V2000
  -13.7921   27.4538  -22.8738 O   0  0  0  0  0  0  0  0  0  0  0  0
  -14.8124   27.3540  -21.8905 C   0  0  0  0  0  0  0  0  0  0  0  0
  -15.0851   26.5780  -21.1564 O   0  0  0  0  0  0  0  0  0  0  0  0
  -15.7650   28.6034  -22.0062 C   0  0  0  0  0  0  0  0  0  0  0  0
  -15.2312   29.9548  -21.9542 C   0  0  0  0  0  0  0  0  0  0  0  0
  -16.0792   30.9091  -22.6227 C   0  0  0  0  0  0  0  0  0  0  0  0
  -17.2017   31.1353  -22.4355 N   0  0  0  0  0  0  0  0  0  0  0  0
  -15.4215   31.5017  -23.8484 C   0  0  0  0  0  0  0  0  0  0  0  0
  -17.7804   32.0092  -23.3400 N   0  0  0  0  0  0  0  0  0  0  0  0
  -17.0082   32.4478  -24.2926 C   0  0  0  0  0  0  0  0  0  0  0  0
  -19.3068   32.3240  -23.1632 C   0  0  0  0  0  0  0  0  0  0  0  0
  -13.9201   31.2438  -23.8135 O   0  0  0  0  0  0  0  0  0  0  0  0
  -17.8659   33.4090  -25.2971 O   0  0  0  0  0  0  0  0  0  0  0  0
  -15.9294   32.3207  -24.6282 N   0  0  0  0  0  0  0  0  0  0  0  0
  -19.7565   31.3717  -22.2966 O   0  0  0  0  0  0  0  0  0  0  0  0
  -17.2169   33.9140  -26.3532 C   0  0  0  0  0  0  0  0  0  0  0  0
  -16.9107   33.1681  -27.3248 C   0  0  0  0  0  0  0  0  0  0  0  0
  -18.1231   35.0542  -26.8620 C   0  0  0  0  0  0  0  0  0  0  0  0
  -16.0855   33.9138  -28.3588 O   0  0  0  0  0  0  0  0  0  0  0  0
  -17.7611   36.1443  -26.4453 O   0  0  0  0  0  0  0  0  0  0  0  0
  1  2  2  0
  2  3  1  0
  2  4  1  0
  4  5  1  0
  5  6  1  0
  6  7  2  0
  6  8  1  0
  7  9  1  0
  9 10  1  0
  9 11  1  0
  8 12  2  0
 10 13  1  0
  8 14  1  0
 10 14  2  0
 11 15  1  0
 13 16  1  0
 16 17  1  0
 16 18  1  0
 17 19  1  0
 18 20  1  0
M  END
