
     RDKit          3D

 20 21  0  0  0  0  0  0  0  0999 V2000
  -13.5851   27.1653  -22.3389 O   0  0  0  0  0  0  0  0  0  0  0  0
  -14.6401   27.1406  -21.8939 C   0  0  0  0  0  0  0  0  0  0  0  0
  -15.5069   28.3654  -22.2920 C   0  0  0  0  0  0  0  0  0  0  0  0
  -14.9634   29.5950  -22.4673 O   0  0  0  0  0  0  0  0  0  0  0  0
  -15.8061   30.7207  -22.6722 C   0  0  0  0  0  0  0  0  0  0  0  0
  -15.5668   31.4467  -23.7142 C   0  0  0  0  0  0  0  0  0  0  0  0
  -16.8142   30.8107  -21.8419 C   0  0  0  0  0  0  0  0  0  0  0  0
  -17.7109   31.7416  -22.2040 C   0  0  0  0  0  0  0  0  0  0  0  0
  -14.3374   31.2056  -24.4675 O   0  0  0  0  0  0  0  0  0  0  0  0
  -17.5378   32.6963  -23.1276 C   0  0  0  0  0  0  0  0  0  0  0  0
  -18.9148   31.8422  -21.2653 C   0  0  0  0  0  0  0  0  0  0  0  0
  -19.8444   31.0121  -21.3039 O   0  0  0  0  0  0  0  0  0  0  0  0
  -16.3176   32.5373  -24.0591 C   0  0  0  0  0  0  0  0  0  0  0  0
  -16.0864   33.4995  -25.1792 C   0  0  0  0  0  0  0  0  0  0  0  0
  -18.9936   32.7556  -20.3579 O   0  0  0  0  0  0  0  0  0  0  0  0
  -15.8070   34.7755  -24.7792 C   0  0  0  0  0  0  0  0  0  0  0  0
  -16.3827   33.1100  -26.4302 C   0  0  0  0  0  0  0  0  0  0  0  0
  -16.2100   33.9981  -27.4736 C   0  0  0  0  0  0  0  0  0  0  0  0
  -15.9102   35.3042  -27.2158 C   0  0  0  0  0  0  0  0  0  0  0  0
  -15.7019   35.7213  -25.9775 C   0  0  0  0  0  0  0  0  0  0  0  0
  1  2  2  0
  2  3  1  0
  3  4  1  0
  4  5  1  0
  5  6  1  0
  5  7  2  0
  7  8  1  0
  6  9  1  0
  8 10  2  0
  8 11  1  0
 11 12  2  0
  6 13  2  0
 10 13  1  0
 13 14  1  0
 11 15  1  0
 14 16  1  0
 14 17  2  0
 17 18  1  0
 18 19  2  0
 16 20  2  0
 19 20  1  0
M  END
