
     RDKit          3D

  5  4  0  0  0  0  0  0  0  0999 V2000
  -14.5671   27.6000  -22.6330 O   0  0  0  0  0  0  0  0  0  0  0  0
  -15.2168   28.5997  -22.1755 C   0  0  0  0  0  0  0  0  0  0  0  0
  -16.3414   28.3977  -21.5918 O   0  0  0  0  0  0  0  0  0  0  0  0
  -15.0045   29.9822  -22.5010 C   0  0  0  0  0  0  0  0  0  0  0  0
  -14.2285   30.3810  -23.3767 C   0  0  0  0  0  0  0  0  0  0  0  0
  1  2  2  0
  2  3  1  0
  2  4  1  0
  4  5  2  0
M  END
