
     RDKit          3D

 20 20  0  0  0  0  0  0  0  0999 V2000
  -14.3947   27.9017  -22.6194 O   0  0  0  0  0  0  0  0  0  0  0  0
  -15.6632   28.2481  -21.9437 C   0  0  0  0  0  0  0  0  0  0  0  0
  -16.4219   27.4139  -21.6219 O   0  0  0  0  0  0  0  0  0  0  0  0
  -15.8006   29.6676  -21.6961 C   0  0  0  0  0  0  0  0  0  0  0  0
  -16.9695   30.1876  -22.3065 C   0  0  0  0  0  0  0  0  0  0  0  0
  -18.1313   29.6840  -22.4554 O   0  0  0  0  0  0  0  0  0  0  0  0
  -16.9715   31.6262  -22.4011 N   0  0  0  0  0  0  0  0  0  0  0  0
  -17.8534   32.3720  -22.8884 C   0  0  0  0  0  0  0  0  0  0  0  0
  -18.9700   32.8718  -21.9748 C   0  0  0  0  0  0  0  0  0  0  0  0
  -18.4168   31.8804  -24.0886 O   0  0  0  0  0  0  0  0  0  0  0  0
  -17.5001   31.9613  -25.2362 C   0  0  0  0  0  0  0  0  0  0  0  0
  -19.2730   34.1230  -21.8532 O   0  0  0  0  0  0  0  0  0  0  0  0
  -19.3301   32.0334  -20.9763 O   0  0  0  0  0  0  0  0  0  0  0  0
  -18.0530   33.0589  -26.1544 C   0  0  0  0  0  0  0  0  0  0  0  0
  -17.7621   34.3388  -25.7035 C   0  0  0  0  0  0  0  0  0  0  0  0
  -19.4822   32.9451  -26.2934 C   0  0  0  0  0  0  0  0  0  0  0  0
  -16.9439   35.1521  -26.6339 C   0  0  0  0  0  0  0  0  0  0  0  0
  -15.8608   34.5897  -27.0459 O   0  0  0  0  0  0  0  0  0  0  0  0
  -18.9413   35.0642  -25.2552 O   0  0  0  0  0  0  0  0  0  0  0  0
  -20.0548   34.1974  -25.8479 C   0  0  0  0  0  0  0  0  0  0  0  0
  1  2  2  0
  2  3  1  0
  2  4  1  0
  4  5  1  0
  5  6  2  0
  5  7  1  0
  7  8  1  0
  8  9  1  0
  8 10  1  0
 10 11  1  0
  9 12  2  0
  9 13  1  0
 11 14  1  0
 14 15  1  0
 14 16  1  0
 15 17  1  0
 17 18  1  0
 15 19  1  0
 16 20  1  0
 19 20  1  0
M  END
