
     RDKit          3D

 20 20  0  0  0  0  0  0  0  0999 V2000
  -13.9809   27.7047  -22.6347 O   0  0  0  0  0  0  0  0  0  0  0  0
  -15.3208   28.1386  -22.3324 C   0  0  0  0  0  0  0  0  0  0  0  0
  -16.2198   27.3388  -22.1360 N   0  0  0  0  0  0  0  0  0  0  0  0
  -15.5755   29.6285  -22.4779 C   0  0  0  0  0  0  0  0  0  0  0  0
  -14.7249   30.4215  -22.9423 O   0  0  0  0  0  0  0  0  0  0  0  0
  -16.8037   29.9966  -22.0252 N   0  0  0  0  0  0  0  0  0  0  0  0
  -17.1911   31.3729  -22.3149 C   0  0  0  0  0  0  0  0  0  0  0  0
  -18.7159   31.4152  -22.3599 C   0  0  0  0  0  0  0  0  0  0  0  0
  -19.1811   32.4542  -21.2172 C   0  0  0  0  0  0  0  0  0  0  0  0
  -20.1692   32.1941  -20.5718 O   0  0  0  0  0  0  0  0  0  0  0  0
  -18.7550   33.6383  -21.3022 O   0  0  0  0  0  0  0  0  0  0  0  0
  -16.9808   31.8651  -23.7257 C   0  0  0  0  0  0  0  0  0  0  0  0
  -18.0523   32.6687  -24.2880 N   0  0  0  0  0  0  0  0  0  0  0  0
  -19.1201   31.6007  -23.6532 C   0  0  0  0  0  0  0  0  0  0  0  0
  -18.2754   34.0252  -23.9677 C   0  0  0  0  0  0  0  0  0  0  0  0
  -17.3881   34.7880  -24.8407 C   0  0  0  0  0  0  0  0  0  0  0  0
  -16.8137   34.1104  -25.8594 O   0  0  0  0  0  0  0  0  0  0  0  0
  -15.7711   34.7391  -26.6146 C   0  0  0  0  0  0  0  0  0  0  0  0
  -16.1443   34.7809  -28.0242 C   0  0  0  0  0  0  0  0  0  0  0  0
  -16.1105   33.6068  -28.7534 O   0  0  0  0  0  0  0  0  0  0  0  0
  1  2  2  0
  2  3  1  0
  2  4  1  0
  4  5  2  0
  4  6  1  0
  6  7  1  0
  7  8  1  0
  8  9  1  0
  9 10  1  0
  9 11  2  0
  7 12  1  0
 12 13  1  0
  8 14  1  0
 13 14  1  0
 13 15  1  0
 15 16  1  0
 16 17  1  0
 17 18  1  0
 18 19  1  0
 19 20  1  0
M  END
