
     RDKit          3D

 20 20  0  0  0  0  0  0  0  0999 V2000
  -20.1834   31.2226  -20.8955 O   0  0  0  0  0  0  0  0  0  0  0  0
  -19.7228   32.5672  -20.6705 P   0  0  0  0  0  0  0  0  0  0  0  0
  -19.4589   32.8832  -19.4084 O   0  0  0  0  0  0  0  0  0  0  0  0
  -20.8625   33.4915  -21.2573 O   0  0  0  0  0  0  0  0  0  0  0  0
  -18.5745   32.7683  -21.7236 O   0  0  0  0  0  0  0  0  0  0  0  0
  -18.1724   31.7477  -22.6752 C   0  0  0  0  0  0  0  0  0  0  0  0
  -17.2936   30.8570  -22.4909 C   0  0  0  0  0  0  0  0  0  0  0  0
  -18.0458   32.5497  -23.9694 C   0  0  0  0  0  0  0  0  0  0  0  0
  -16.9800   33.2863  -24.0941 O   0  0  0  0  0  0  0  0  0  0  0  0
  -16.6520   34.2437  -25.1044 P   0  0  0  0  0  0  0  0  0  0  0  0
  -16.1531   33.7553  -26.2242 O   0  0  0  0  0  0  0  0  0  0  0  0
  -15.7340   35.2924  -24.5424 O   0  0  0  0  0  0  0  0  0  0  0  0
  -17.9413   35.1271  -25.5175 O   0  0  0  0  0  0  0  0  0  0  0  0
  -16.1587   31.1376  -22.0354 O   0  0  0  0  0  0  0  0  0  0  0  0
  -15.0795   30.1366  -21.9135 N   0  0  0  0  0  0  0  0  0  0  0  0
  -17.0724   29.5412  -22.6654 N   0  0  0  0  0  0  0  0  0  0  0  0
  -15.8569   29.1005  -22.3517 C   0  0  0  0  0  0  0  0  0  0  0  0
  -15.3182   27.7409  -22.3883 C   0  0  0  0  0  0  0  0  0  0  0  0
  -14.1271   27.5957  -22.5713 O   0  0  0  0  0  0  0  0  0  0  0  0
  -16.1924   26.9394  -22.1506 O   0  0  0  0  0  0  0  0  0  0  0  0
  1  2  1  0
  2  3  1  0
  2  4  2  0
  2  5  1  0
  5  6  1  0
  6  7  1  0
  6  8  1  0
  8  9  1  0
  9 10  1  0
 10 11  2  0
 10 12  1  0
 10 13  1  0
  7 14  1  0
 14 15  1  0
  7 16  2  0
 15 17  2  0
 16 17  1  0
 17 18  1  0
 18 19  1  0
 18 20  2  0
M  END
