
     RDKit          3D

 20 20  0  0  0  0  0  0  0  0999 V2000
  -14.4790   27.3998  -22.7127 O   0  0  0  0  0  0  0  0  0  0  0  0
  -15.4751   27.9882  -21.9296 C   0  0  0  0  0  0  0  0  0  0  0  0
  -15.5912   29.3686  -22.1361 C   0  0  0  0  0  0  0  0  0  0  0  0
  -14.7021   30.0897  -22.7793 O   0  0  0  0  0  0  0  0  0  0  0  0
  -16.8981   29.8901  -22.0829 N   0  0  0  0  0  0  0  0  0  0  0  0
  -16.4070   27.4173  -21.3525 O   0  0  0  0  0  0  0  0  0  0  0  0
  -17.1850   31.2376  -22.4203 C   0  0  0  0  0  0  0  0  0  0  0  0
  -18.6956   31.4636  -22.3810 C   0  0  0  0  0  0  0  0  0  0  0  0
  -17.1159   31.3643  -24.0072 C   0  0  0  0  0  0  0  0  0  0  0  0
  -17.1938   32.7699  -24.4555 C   0  0  0  0  0  0  0  0  0  0  0  0
  -19.2418   31.1444  -21.0785 O   0  0  0  0  0  0  0  0  0  0  0  0
  -16.8489   32.9756  -25.7407 C   0  0  0  0  0  0  0  0  0  0  0  0
  -17.1790   33.9250  -23.5902 C   0  0  0  0  0  0  0  0  0  0  0  0
  -19.5349   31.9625  -23.0383 O   0  0  0  0  0  0  0  0  0  0  0  0
  -16.7012   34.5841  -25.9638 C   0  0  0  0  0  0  0  0  0  0  0  0
  -16.8993   35.0348  -24.5875 N   0  0  0  0  0  0  0  0  0  0  0  0
  -15.4742   34.8977  -26.4810 O   0  0  0  0  0  0  0  0  0  0  0  0
  -15.5357   35.0340  -27.8822 C   0  0  0  0  0  0  0  0  0  0  0  0
  -16.4663   36.2398  -24.0608 C   0  0  0  0  0  0  0  0  0  0  0  0
  -16.2562   36.3601  -22.8075 O   0  0  0  0  0  0  0  0  0  0  0  0
  1  2  2  0
  2  3  1  0
  3  4  2  0
  3  5  1  0
  2  6  1  0
  5  7  1  0
  7  8  1  0
  7  9  1  0
  9 10  1  0
  8 11  1  0
 10 12  2  0
 10 13  1  0
  8 14  2  0
 12 15  1  0
 13 16  1  0
 15 16  1  0
 15 17  1  0
 17 18  1  0
 16 19  1  0
 19 20  2  0
M  END
