
     RDKit          3D

  6  5  0  0  0  0  0  0  0  0999 V2000
  -13.3913   26.4705  -29.3895 N   0  0  0  0  0  0  0  0  0  0  0  0
  -14.6922   26.7908  -29.2683 N   0  0  0  0  0  0  0  0  0  0  0  0
  -15.6715   26.0576  -29.0291 C   0  0  0  0  0  0  0  0  0  0  0  0
  -17.1205   26.5541  -29.1708 C   0  0  0  0  0  0  0  0  0  0  0  0
  -17.1774   27.7785  -29.4241 O   0  0  0  0  0  0  0  0  0  0  0  0
  -18.0706   25.6667  -29.4046 O   0  0  0  0  0  0  0  0  0  0  0  0
  1  2  1  0
  2  3  1  0
  3  4  1  0
  4  5  2  0
  4  6  1  0
M  END
