
     RDKit          3D

 21 22  0  0  0  0  0  0  0  0999 V2000
  -14.3086   27.4348  -23.0117 O   0  0  0  0  0  0  0  0  0  0  0  0
  -15.3347   27.8047  -22.0259 C   0  0  0  0  0  0  0  0  0  0  0  0
  -15.9432   27.1183  -21.4306 O   0  0  0  0  0  0  0  0  0  0  0  0
  -15.8154   29.2681  -22.2265 C   0  0  0  0  0  0  0  0  0  0  0  0
  -16.9950   29.6179  -22.1286 N   0  0  0  0  0  0  0  0  0  0  0  0
  -17.2129   30.8962  -22.4098 C   0  0  0  0  0  0  0  0  0  0  0  0
  -14.8648   30.3669  -22.2659 C   0  0  0  0  0  0  0  0  0  0  0  0
  -15.5750   31.5138  -22.6239 S   0  0  0  0  0  0  0  0  0  0  0  0
  -18.5410   31.5133  -22.6569 C   0  0  0  0  0  0  0  0  0  0  0  0
  -18.6156   32.1913  -23.7059 C   0  0  0  0  0  0  0  0  0  0  0  0
  -18.4384   31.4988  -25.0303 C   0  0  0  0  0  0  0  0  0  0  0  0
  -18.7217   33.6333  -23.6977 C   0  0  0  0  0  0  0  0  0  0  0  0
  -18.8144   34.3583  -25.0105 C   0  0  0  0  0  0  0  0  0  0  0  0
  -18.9605   35.7750  -24.9070 C   0  0  0  0  0  0  0  0  0  0  0  0
  -19.4883   31.4256  -21.6630 C   0  0  0  0  0  0  0  0  0  0  0  0
  -18.5187   36.4740  -25.8499 O   0  0  0  0  0  0  0  0  0  0  0  0
  -20.3370   30.6369  -21.5333 O   0  0  0  0  0  0  0  0  0  0  0  0
  -18.4554   33.7452  -26.0714 C   0  0  0  0  0  0  0  0  0  0  0  0
  -19.9250   36.3319  -24.1566 O   0  0  0  0  0  0  0  0  0  0  0  0
  -18.2363   32.2981  -26.2239 C   0  0  0  0  0  0  0  0  0  0  0  0
  -19.4189   32.4328  -20.6441 O   0  0  0  0  0  0  0  0  0  0  0  0
  1  2  2  0
  2  3  1  0
  2  4  1  0
  4  5  2  0
  5  6  1  0
  4  7  1  0
  6  8  2  0
  7  8  1  0
  6  9  1  0
  9 10  1  0
 10 11  1  0
 10 12  2  0
 12 13  1  0
 13 14  1  0
  9 15  1  0
 14 16  2  0
 15 17  2  0
 13 18  2  0
 14 19  1  0
 11 20  2  0
 18 20  1  0
 15 21  1  0
M  END
