
     RDKit          3D

 21 21  0  0  0  0  0  0  0  0999 V2000
  -13.6188   26.9173  -22.1917 O   0  0  0  0  0  0  0  0  0  0  0  0
  -14.8138   27.4730  -22.2172 C   0  0  0  0  0  0  0  0  0  0  0  0
  -14.9110   28.8326  -22.6145 N   0  0  0  0  0  0  0  0  0  0  0  0
  -15.6572   29.7084  -22.1176 C   0  0  0  0  0  0  0  0  0  0  0  0
  -15.6610   30.9833  -22.9030 C   0  0  0  0  0  0  0  0  0  0  0  0
  -14.6483   31.2772  -23.6226 O   0  0  0  0  0  0  0  0  0  0  0  0
  -16.7034   31.8600  -22.7168 N   0  0  0  0  0  0  0  0  0  0  0  0
  -16.8807   33.0254  -23.5733 C   0  0  0  0  0  0  0  0  0  0  0  0
  -17.8458   31.5475  -21.8812 C   0  0  0  0  0  0  0  0  0  0  0  0
  -18.0483   33.6950  -23.3799 C   0  0  0  0  0  0  0  0  0  0  0  0
  -16.6580   32.5630  -25.0943 C   0  0  0  0  0  0  0  0  0  0  0  0
  -17.8792   35.1617  -23.2994 N   0  0  0  0  0  0  0  0  0  0  0  0
  -15.9558   33.6579  -25.9333 C   0  0  0  0  0  0  0  0  0  0  0  0
  -19.2419   33.2164  -23.1509 C   0  0  0  0  0  0  0  0  0  0  0  0
  -17.7623   35.9951  -24.1927 O   0  0  0  0  0  0  0  0  0  0  0  0
  -15.7155   34.8236  -25.2840 C   0  0  0  0  0  0  0  0  0  0  0  0
  -19.1275   32.0470  -22.2087 C   0  0  0  0  0  0  0  0  0  0  0  0
  -14.5081   34.8353  -24.7099 O   0  0  0  0  0  0  0  0  0  0  0  0
  -16.8324   33.8971  -27.1854 C   0  0  0  0  0  0  0  0  0  0  0  0
  -20.2671   31.5188  -21.5385 O   0  0  0  0  0  0  0  0  0  0  0  0
  -17.8762   35.6549  -22.0134 O   0  0  0  0  0  0  0  0  0  0  0  0
  1  2  2  0
  2  3  1  0
  3  4  1  0
  4  5  1  0
  5  6  2  0
  5  7  1  0
  7  8  1  0
  7  9  1  0
  8 10  1  0
  8 11  1  0
 10 12  1  0
 11 13  1  0
 10 14  2  0
 12 15  1  0
 13 16  1  0
  9 17  2  0
 14 17  1  0
 16 18  1  0
 13 19  1  0
 17 20  1  0
 12 21  2  0
M  CHG  2  12   1  15  -1
M  END
