
     RDKit          3D

 21 21  0  0  0  0  0  0  0  0999 V2000
  -16.0915   36.1588  -20.2411 O   0  0  0  0  0  0  0  0  0  0  0  0
  -17.3910   36.7157  -20.0767 P   0  0  0  0  0  0  0  0  0  0  0  0
  -18.2984   36.1387  -21.1520 O   0  0  0  0  0  0  0  0  0  0  0  0
  -17.3471   38.2127  -20.1461 O   0  0  0  0  0  0  0  0  0  0  0  0
  -17.8228   36.0259  -18.7930 O   0  0  0  0  0  0  0  0  0  0  0  0
  -17.8891   35.4686  -22.4194 C   0  0  0  0  0  0  0  0  0  0  0  0
  -17.8573   36.3323  -23.5190 C   0  0  0  0  0  0  0  0  0  0  0  0
  -17.8204   34.1723  -22.5957 C   0  0  0  0  0  0  0  0  0  0  0  0
  -17.5677   33.6217  -23.8786 C   0  0  0  0  0  0  0  0  0  0  0  0
  -17.5094   32.1721  -24.0658 C   0  0  0  0  0  0  0  0  0  0  0  0
  -18.0370   31.4118  -23.1493 C   0  0  0  0  0  0  0  0  0  0  0  0
  -19.2132   31.3296  -22.8199 O   0  0  0  0  0  0  0  0  0  0  0  0
  -17.1792   30.6447  -22.4217 N   0  0  0  0  0  0  0  0  0  0  0  0
  -18.0222   37.7756  -23.1611 O   0  0  0  0  0  0  0  0  0  0  0  0
  -15.7947   30.7022  -22.6461 C   0  0  0  0  0  0  0  0  0  0  0  0
  -17.5872   35.9548  -24.7218 C   0  0  0  0  0  0  0  0  0  0  0  0
  -17.3751   36.9080  -25.7765 O   0  0  0  0  0  0  0  0  0  0  0  0
  -17.4185   34.5810  -24.9508 C   0  0  0  0  0  0  0  0  0  0  0  0
  -15.1655   31.2199  -23.4454 O   0  0  0  0  0  0  0  0  0  0  0  0
  -15.0837   29.5505  -21.9277 O   0  0  0  0  0  0  0  0  0  0  0  0
  -15.6247   28.2106  -21.8549 C   0  0  0  0  0  0  0  0  0  0  0  0
  1  2  1  0
  2  3  1  0
  2  4  2  0
  2  5  1  0
  3  6  1  0
  6  7  1  0
  6  8  2  0
  8  9  1  0
  9 10  1  0
 10 11  1  0
 11 12  2  0
 11 13  1  0
  7 14  1  0
 13 15  1  0
  7 16  2  0
 16 17  1  0
  9 18  2  0
 16 18  1  0
 15 19  2  0
 15 20  1  0
 20 21  1  0
M  END
