
     RDKit          3D

 21 22  0  0  0  0  0  0  0  0999 V2000
  -13.5851   27.1653  -22.3389 O   0  0  0  0  0  0  0  0  0  0  0  0
  -14.6401   27.1406  -21.8939 C   0  0  0  0  0  0  0  0  0  0  0  0
  -15.5069   28.3654  -22.2920 C   0  0  0  0  0  0  0  0  0  0  0  0
  -14.9634   29.5950  -22.4673 O   0  0  0  0  0  0  0  0  0  0  0  0
  -15.8061   30.7207  -22.6722 C   0  0  0  0  0  0  0  0  0  0  0  0
  -15.5668   31.4467  -23.7142 C   0  0  0  0  0  0  0  0  0  0  0  0
  -16.8142   30.8107  -21.8419 C   0  0  0  0  0  0  0  0  0  0  0  0
  -17.7109   31.7416  -22.2040 C   0  0  0  0  0  0  0  0  0  0  0  0
  -18.9499   31.9357  -21.3360 C   0  0  0  0  0  0  0  0  0  0  0  0
  -16.3632   32.4718  -24.0286 C   0  0  0  0  0  0  0  0  0  0  0  0
  -17.5169   32.6385  -23.2448 C   0  0  0  0  0  0  0  0  0  0  0  0
  -16.0313   33.2650  -24.9927 N   0  0  0  0  0  0  0  0  0  0  0  0
  -19.9696   31.1970  -21.5070 O   0  0  0  0  0  0  0  0  0  0  0  0
  -16.9045   34.1396  -25.7568 C   0  0  0  0  0  0  0  0  0  0  0  0
  -16.8249   35.4576  -25.5404 C   0  0  0  0  0  0  0  0  0  0  0  0
  -17.7616   33.7003  -26.7432 C   0  0  0  0  0  0  0  0  0  0  0  0
  -18.4701   34.9753  -27.1833 C   0  0  0  0  0  0  0  0  0  0  0  0
  -19.1627   33.1206  -20.7626 O   0  0  0  0  0  0  0  0  0  0  0  0
  -18.0107   32.4351  -27.1974 C   0  0  0  0  0  0  0  0  0  0  0  0
  -17.8087   35.9962  -26.4538 N   0  0  0  0  0  0  0  0  0  0  0  0
  -16.1076   36.2423  -24.8502 O   0  0  0  0  0  0  0  0  0  0  0  0
  1  2  2  0
  2  3  1  0
  3  4  1  0
  4  5  1  0
  5  6  1  0
  5  7  2  0
  7  8  1  0
  8  9  1  0
  6 10  2  0
  8 11  2  0
 10 11  1  0
 10 12  1  0
  9 13  2  0
 12 14  1  0
 14 15  1  0
 14 16  2  0
 16 17  1  0
  9 18  1  0
 16 19  1  0
 15 20  1  0
 17 20  2  0
 15 21  2  0
M  END
