
     RDKit          3D

  6  5  0  0  0  0  0  0  0  0999 V2000
  -13.3913   26.4705  -29.3895 N   0  0  0  0  0  0  0  0  0  0  0  0
  -14.6922   26.7908  -29.2683 N   0  0  0  0  0  0  0  0  0  0  0  0
  -15.6715   26.0576  -29.0291 N   0  0  0  0  0  0  0  0  0  0  0  0
  -17.0273   26.4299  -29.1349 C   0  0  0  0  0  0  0  0  0  0  0  0
  -17.9686   25.4412  -29.3156 C   0  0  0  0  0  0  0  0  0  0  0  0
  -17.2011   27.5646  -29.5305 N   0  0  0  0  0  0  0  0  0  0  0  0
  1  2  1  0
  2  3  1  0
  3  4  1  0
  4  5  1  0
  4  6  2  0
M  END
