
     RDKit          3D

 21 21  0  0  0  0  0  0  0  0999 V2000
  -15.9124   36.2396  -19.9440 O   0  0  0  0  0  0  0  0  0  0  0  0
  -17.2684   36.5678  -20.1448 P   0  0  0  0  0  0  0  0  0  0  0  0
  -17.5429   37.8977  -20.3230 O   0  0  0  0  0  0  0  0  0  0  0  0
  -17.8405   35.9292  -21.5699 O   0  0  0  0  0  0  0  0  0  0  0  0
  -18.2275   35.8063  -19.2283 O   0  0  0  0  0  0  0  0  0  0  0  0
  -17.2444   36.3457  -22.9005 P   0  0  0  0  0  0  0  0  0  0  0  0
  -17.9072   37.3329  -23.5061 O   0  0  0  0  0  0  0  0  0  0  0  0
  -17.4826   34.9688  -23.7680 O   0  0  0  0  0  0  0  0  0  0  0  0
  -15.8307   36.4999  -22.7852 O   0  0  0  0  0  0  0  0  0  0  0  0
  -16.4798   34.3794  -24.7191 C   0  0  0  0  0  0  0  0  0  0  0  0
  -17.0008   34.6594  -26.0046 C   0  0  0  0  0  0  0  0  0  0  0  0
  -16.5964   33.7648  -26.9521 C   0  0  0  0  0  0  0  0  0  0  0  0
  -17.3430   32.6584  -27.1228 C   0  0  0  0  0  0  0  0  0  0  0  0
  -16.5746   32.8561  -24.5875 C   0  0  0  0  0  0  0  0  0  0  0  0
  -16.1699   32.2691  -23.5749 N   0  0  0  0  0  0  0  0  0  0  0  0
  -17.1907   32.1230  -25.6381 C   0  0  0  0  0  0  0  0  0  0  0  0
  -16.4011   30.9243  -23.3782 C   0  0  0  0  0  0  0  0  0  0  0  0
  -16.7299   34.4772  -28.4363 C   0  0  0  0  0  0  0  0  0  0  0  0
  -15.4722   30.1463  -22.5842 C   0  0  0  0  0  0  0  0  0  0  0  0
  -15.9480   28.9716  -21.9893 C   0  0  0  0  0  0  0  0  0  0  0  0
  -15.2826   27.8206  -22.2495 N   0  0  0  0  0  0  0  0  0  0  0  0
  1  2  1  0
  2  3  2  0
  2  4  1  0
  2  5  1  0
  4  6  1  0
  6  7  2  0
  6  8  1  0
  6  9  1  0
  8 10  1  0
 10 11  1  0
 11 12  1  0
 12 13  1  0
 10 14  1  0
 14 15  2  3
 13 16  1  0
 14 16  1  0
 15 17  1  0
 12 18  1  0
 17 19  1  0
 19 20  1  0
 20 21  2  0
M  END
