
     RDKit          3D

 21 22  0  0  0  0  0  0  0  0999 V2000
  -20.3137   31.1024  -20.9100 O   0  0  0  0  0  0  0  0  0  0  0  0
  -19.7282   32.4050  -20.6891 P   0  0  0  0  0  0  0  0  0  0  0  0
  -20.7060   33.3805  -21.2661 O   0  0  0  0  0  0  0  0  0  0  0  0
  -19.2660   32.7247  -19.3994 O   0  0  0  0  0  0  0  0  0  0  0  0
  -18.5082   32.3396  -21.7486 O   0  0  0  0  0  0  0  0  0  0  0  0
  -18.3036   31.6970  -22.8665 C   0  0  0  0  0  0  0  0  0  0  0  0
  -16.9394   31.4320  -23.2882 C   0  0  0  0  0  0  0  0  0  0  0  0
  -19.1730   31.8867  -23.8586 C   0  0  0  0  0  0  0  0  0  0  0  0
  -16.2412   30.3001  -22.7374 N   0  0  0  0  0  0  0  0  0  0  0  0
  -18.6056   31.6373  -25.1812 C   0  0  0  0  0  0  0  0  0  0  0  0
  -17.1071   31.4839  -24.7732 C   0  0  0  0  0  0  0  0  0  0  0  0
  -16.4811   29.1702  -22.5554 C   0  0  0  0  0  0  0  0  0  0  0  0
  -19.0263   32.5933  -26.2000 C   0  0  0  0  0  0  0  0  0  0  0  0
  -18.0996   33.5192  -26.5507 N   0  0  0  0  0  0  0  0  0  0  0  0
  -20.2378   32.9987  -26.0458 O   0  0  0  0  0  0  0  0  0  0  0  0
  -20.5468   34.1404  -26.6899 C   0  0  0  0  0  0  0  0  0  0  0  0
  -18.9680   34.7117  -26.9546 C   0  0  0  0  0  0  0  0  0  0  0  0
  -16.9501   33.4297  -27.3291 C   0  0  0  0  0  0  0  0  0  0  0  0
  -15.5046   28.3022  -21.9889 C   0  0  0  0  0  0  0  0  0  0  0  0
  -16.6204   32.4755  -27.9102 O   0  0  0  0  0  0  0  0  0  0  0  0
  -16.0815   34.5968  -27.5484 N   0  0  0  0  0  0  0  0  0  0  0  0
  1  2  2  0
  2  3  1  0
  2  4  1  0
  2  5  1  0
  5  6  1  0
  6  7  1  0
  6  8  1  0
  7  9  1  0
  8 10  1  0
  7 11  1  0
 10 11  1  0
  9 12  1  0
 10 13  1  0
 13 14  1  0
 13 15  1  0
 15 16  1  0
 14 17  1  0
 16 17  1  0
 14 18  1  0
 12 19  1  0
 18 20  2  0
 18 21  1  0
M  END
