
     RDKit          3D

 21 21  0  0  0  0  0  0  0  0999 V2000
  -16.0133   36.3771  -20.8298 O   0  0  0  0  0  0  0  0  0  0  0  0
  -17.4594   36.6700  -20.5535 P   0  0  0  0  0  0  0  0  0  0  0  0
  -18.2499   35.9744  -21.6538 O   0  0  0  0  0  0  0  0  0  0  0  0
  -17.6872   38.1685  -20.6652 O   0  0  0  0  0  0  0  0  0  0  0  0
  -17.8568   36.1654  -19.2515 O   0  0  0  0  0  0  0  0  0  0  0  0
  -18.3538   36.3322  -23.1124 P   0  0  0  0  0  0  0  0  0  0  0  0
  -17.0617   36.5373  -23.5307 O   0  0  0  0  0  0  0  0  0  0  0  0
  -18.9018   34.8662  -23.5848 O   0  0  0  0  0  0  0  0  0  0  0  0
  -19.3783   37.3069  -23.4786 O   0  0  0  0  0  0  0  0  0  0  0  0
  -17.9436   33.7565  -23.8073 C   0  0  0  0  0  0  0  0  0  0  0  0
  -17.9518   33.3178  -25.0089 C   0  0  0  0  0  0  0  0  0  0  0  0
  -17.5842   34.2148  -25.9232 C   0  0  0  0  0  0  0  0  0  0  0  0
  -19.2058   32.6806  -25.4642 O   0  0  0  0  0  0  0  0  0  0  0  0
  -18.0407   34.2182  -27.2053 O   0  0  0  0  0  0  0  0  0  0  0  0
  -19.1408   31.9582  -26.6197 C   0  0  0  0  0  0  0  0  0  0  0  0
  -20.4708   31.3208  -26.7616 C   0  0  0  0  0  0  0  0  0  0  0  0
  -18.8614   33.0234  -27.6700 C   0  0  0  0  0  0  0  0  0  0  0  0
  -21.0670   31.5107  -27.7848 O   0  0  0  0  0  0  0  0  0  0  0  0
  -16.1744   34.6190  -25.9698 C   0  0  0  0  0  0  0  0  0  0  0  0
  -15.6406   34.7999  -27.0165 O   0  0  0  0  0  0  0  0  0  0  0  0
  -15.4085   34.3825  -24.9599 O   0  0  0  0  0  0  0  0  0  0  0  0
  1  2  1  0
  2  3  1  0
  2  4  2  0
  2  5  1  0
  3  6  1  0
  6  7  1  0
  6  8  1  0
  6  9  2  0
  8 10  1  0
 10 11  1  0
 11 12  1  0
 11 13  1  0
 12 14  1  0
 13 15  1  0
 15 16  1  0
 14 17  1  0
 15 17  1  0
 16 18  1  0
 12 19  1  0
 19 20  2  0
 19 21  1  0
M  END
