
     RDKit          3D

  4  3  0  0  0  0  0  0  0  0999 V2000
  -14.5641   27.9429  -22.9616 O   0  0  0  0  0  0  0  0  0  0  0  0
  -15.6265   28.6044  -22.3717 C   0  0  0  0  0  0  0  0  0  0  0  0
  -15.6559   29.9830  -22.4832 C   0  0  0  0  0  0  0  0  0  0  0  0
  -15.1339   30.5321  -23.5866 O   0  0  0  0  0  0  0  0  0  0  0  0
  1  2  1  0
  2  3  1  0
  3  4  1  0
M  END
