
     RDKit          3D

  5  4  0  0  0  0  0  0  0  0999 V2000
  -14.6720   28.1758  -22.9078 O   0  0  0  0  0  0  0  0  0  0  0  0
  -15.7521   28.7782  -22.3610 C   0  0  0  0  0  0  0  0  0  0  0  0
  -16.7378   28.1917  -22.0250 O   0  0  0  0  0  0  0  0  0  0  0  0
  -15.6398   30.2240  -22.1382 C   0  0  0  0  0  0  0  0  0  0  0  0
  -15.0197   30.8814  -23.3056 O   0  0  0  0  0  0  0  0  0  0  0  0
  1  2  2  0
  2  3  1  0
  2  4  1  0
  4  5  1  0
M  END
