
     RDKit          3D

 16 16  0  0  0  0  0  0  0  0999 V2000
  -16.5264   36.7113  -20.8172 O   0  0  0  0  0  0  0  0  0  0  0  0
  -17.2741   36.7620  -21.9915 P   0  0  0  0  0  0  0  0  0  0  0  0
  -17.1661   35.4582  -22.6589 O   0  0  0  0  0  0  0  0  0  0  0  0
  -17.4416   35.0556  -24.0257 C   0  0  0  0  0  0  0  0  0  0  0  0
  -16.6825   37.8027  -22.9437 O   0  0  0  0  0  0  0  0  0  0  0  0
  -17.0367   33.7446  -24.2711 C   0  0  0  0  0  0  0  0  0  0  0  0
  -18.7519   37.2375  -21.6649 O   0  0  0  0  0  0  0  0  0  0  0  0
  -16.0742   33.5318  -25.2107 N   0  0  0  0  0  0  0  0  0  0  0  0
  -17.5217   32.6008  -23.6771 C   0  0  0  0  0  0  0  0  0  0  0  0
  -15.9356   32.1545  -25.3733 N   0  0  0  0  0  0  0  0  0  0  0  0
  -18.4648   32.3919  -22.7622 C   0  0  0  0  0  0  0  0  0  0  0  0
  -15.3784   34.6257  -25.9673 C   0  0  0  0  0  0  0  0  0  0  0  0
  -18.7893   31.1502  -22.4323 N   0  0  0  0  0  0  0  0  0  0  0  0
  -16.1101   35.0156  -27.0960 C   0  0  0  0  0  0  0  0  0  0  0  0
  -16.7264   31.6444  -24.4489 C   0  0  0  0  0  0  0  0  0  0  0  0
  -16.1202   33.9680  -28.1837 C   0  0  0  0  0  0  0  0  0  0  0  0
  1  2  1  0
  2  3  1  0
  3  4  1  0
  2  5  2  0
  4  6  1  0
  2  7  1  0
  6  8  1  0
  6  9  2  0
  8 10  1  0
  9 11  1  0
  8 12  1  0
 11 13  1  0
 12 14  1  0
  9 15  1  0
 10 15  2  0
 14 16  1  0
M  END
