
     RDKit          3D

 16 16  0  0  0  0  0  0  0  0999 V2000
  -16.3474   36.4961  -20.6363 O   0  0  0  0  0  0  0  0  0  0  0  0
  -17.7051   36.9438  -21.1925 P   0  0  0  0  0  0  0  0  0  0  0  0
  -17.7820   36.2280  -22.5043 O   0  0  0  0  0  0  0  0  0  0  0  0
  -18.9026   36.5696  -20.3381 O   0  0  0  0  0  0  0  0  0  0  0  0
  -17.4100   34.9962  -23.0425 C   0  0  0  0  0  0  0  0  0  0  0  0
  -17.7726   38.4330  -21.2563 O   0  0  0  0  0  0  0  0  0  0  0  0
  -18.4815   34.1601  -23.3387 C   0  0  0  0  0  0  0  0  0  0  0  0
  -16.1639   34.8195  -23.5718 C   0  0  0  0  0  0  0  0  0  0  0  0
  -19.7773   34.4029  -22.6122 O   0  0  0  0  0  0  0  0  0  0  0  0
  -18.3237   32.9427  -23.9185 C   0  0  0  0  0  0  0  0  0  0  0  0
  -17.0274   32.7183  -24.5015 C   0  0  0  0  0  0  0  0  0  0  0  0
  -19.4544   32.0637  -24.0954 C   0  0  0  0  0  0  0  0  0  0  0  0
  -16.8546   31.5184  -25.3541 O   0  0  0  0  0  0  0  0  0  0  0  0
  -19.4999   31.3781  -25.2459 O   0  0  0  0  0  0  0  0  0  0  0  0
  -19.1168   30.8070  -23.1786 C   0  0  0  0  0  0  0  0  0  0  0  0
  -15.9689   33.6029  -24.5012 C   0  0  0  0  0  0  0  0  0  0  0  0
  1  2  1  0
  2  3  1  0
  2  4  1  0
  3  5  1  0
  2  6  2  0
  5  7  1  0
  5  8  2  0
  7  9  1  0
  7 10  2  0
 10 11  1  0
 10 12  1  0
 11 13  1  0
 12 14  1  0
 12 15  1  0
  8 16  1  0
 11 16  2  0
M  END
