
     RDKit          3D

 16 16  0  0  0  0  0  0  0  0999 V2000
  -15.9333   33.3737  -28.3999 O   0  0  0  0  0  0  0  0  0  0  0  0
  -16.7726   33.1245  -27.5037 C   0  0  0  0  0  0  0  0  0  0  0  0
  -17.0463   34.2162  -26.5141 C   0  0  0  0  0  0  0  0  0  0  0  0
  -16.8573   33.8974  -25.2097 C   0  0  0  0  0  0  0  0  0  0  0  0
  -17.8676   33.2726  -24.5441 N   0  0  0  0  0  0  0  0  0  0  0  0
  -19.0285   33.8769  -24.2032 C   0  0  0  0  0  0  0  0  0  0  0  0
  -17.9063   31.8473  -24.5422 C   0  0  0  0  0  0  0  0  0  0  0  0
  -16.5188   35.1676  -24.4802 C   0  0  0  0  0  0  0  0  0  0  0  0
  -18.8604   34.7526  -23.1659 O   0  0  0  0  0  0  0  0  0  0  0  0
  -16.2712   35.4172  -26.8925 O   0  0  0  0  0  0  0  0  0  0  0  0
  -17.5201   35.6598  -23.6504 C   0  0  0  0  0  0  0  0  0  0  0  0
  -17.3994   36.8568  -22.7257 C   0  0  0  0  0  0  0  0  0  0  0  0
  -17.9659   37.8581  -23.0093 O   0  0  0  0  0  0  0  0  0  0  0  0
  -18.9432   31.1794  -24.2950 O   0  0  0  0  0  0  0  0  0  0  0  0
  -16.3607   36.8918  -22.0416 O   0  0  0  0  0  0  0  0  0  0  0  0
  -16.7380   31.1985  -24.8701 O   0  0  0  0  0  0  0  0  0  0  0  0
  1  2  1  0
  2  3  1  0
  3  4  1  0
  4  5  1  0
  5  6  1  0
  5  7  1  0
  4  8  1  0
  6  9  1  0
  3 10  1  0
  8 11  2  0
  9 11  1  0
 11 12  1  0
 12 13  2  0
  7 14  1  0
 12 15  1  0
  7 16  2  0
M  END
