
     RDKit          3D

 16 17  0  0  0  0  0  0  0  0999 V2000
  -17.5932   30.1573  -22.6492 N   0  0  0  0  0  0  0  0  0  0  0  0
  -16.3211   30.0927  -22.7467 C   0  0  0  0  0  0  0  0  0  0  0  0
  -15.7274   31.1384  -23.4350 N   0  0  0  0  0  0  0  0  0  0  0  0
  -15.6388   29.1529  -21.9796 N   0  0  0  0  0  0  0  0  0  0  0  0
  -16.3118   31.9980  -24.1685 C   0  0  0  0  0  0  0  0  0  0  0  0
  -17.7126   31.9910  -24.1359 C   0  0  0  0  0  0  0  0  0  0  0  0
  -18.3815   31.0224  -23.3604 C   0  0  0  0  0  0  0  0  0  0  0  0
  -18.5860   32.9722  -24.8392 C   0  0  0  0  0  0  0  0  0  0  0  0
  -18.4482   34.2469  -24.6001 N   0  0  0  0  0  0  0  0  0  0  0  0
  -19.7262   32.6006  -25.5468 O   0  0  0  0  0  0  0  0  0  0  0  0
  -19.6358   30.8644  -23.2198 O   0  0  0  0  0  0  0  0  0  0  0  0
  -17.3196   34.8100  -23.7051 C   0  0  0  0  0  0  0  0  0  0  0  0
  -18.9179   35.3528  -25.4947 C   0  0  0  0  0  0  0  0  0  0  0  0
  -16.7324   36.1812  -24.1975 C   0  0  0  0  0  0  0  0  0  0  0  0
  -17.9296   36.4726  -25.4016 C   0  0  0  0  0  0  0  0  0  0  0  0
  -16.8256   36.8972  -23.0564 O   0  0  0  0  0  0  0  0  0  0  0  0
  1  2  1  0
  2  3  2  0
  2  4  1  0
  3  5  1  0
  5  6  2  0
  1  7  1  0
  6  7  1  0
  6  8  1  0
  8  9  1  0
  8 10  2  0
  7 11  2  0
  9 12  1  0
  9 13  1  0
 12 14  1  0
 13 15  1  0
 14 15  1  0
 14 16  1  0
M  END
