
     RDKit          3D

 16 16  0  0  0  0  0  0  0  0999 V2000
  -14.7852   31.5926  -24.1597 O   0  0  0  0  0  0  0  0  0  0  0  0
  -16.1181   31.5011  -23.8596 C   0  0  0  0  0  0  0  0  0  0  0  0
  -17.0686   32.2956  -24.5151 C   0  0  0  0  0  0  0  0  0  0  0  0
  -16.5353   33.3350  -25.5352 C   0  0  0  0  0  0  0  0  0  0  0  0
  -16.5396   30.5855  -22.8969 C   0  0  0  0  0  0  0  0  0  0  0  0
  -18.4301   32.1498  -24.3219 C   0  0  0  0  0  0  0  0  0  0  0  0
  -18.8153   31.1987  -23.4129 C   0  0  0  0  0  0  0  0  0  0  0  0
  -16.6621   34.6594  -25.0172 C   0  0  0  0  0  0  0  0  0  0  0  0
  -17.0692   33.2382  -26.8731 C   0  0  0  0  0  0  0  0  0  0  0  0
  -17.8798   30.4137  -22.6959 C   0  0  0  0  0  0  0  0  0  0  0  0
  -15.6592   29.7704  -22.1913 O   0  0  0  0  0  0  0  0  0  0  0  0
  -17.5772   35.1294  -24.6108 O   0  0  0  0  0  0  0  0  0  0  0  0
  -15.5752   35.4477  -25.0925 O   0  0  0  0  0  0  0  0  0  0  0  0
  -16.1898   33.4867  -27.9203 C   0  0  0  0  0  0  0  0  0  0  0  0
  -16.0941   34.8252  -28.3504 O   0  0  0  0  0  0  0  0  0  0  0  0
  -15.6650   32.5772  -28.5237 O   0  0  0  0  0  0  0  0  0  0  0  0
  1  2  1  0
  2  3  2  0
  3  4  1  0
  2  5  1  0
  3  6  1  0
  6  7  2  0
  4  8  1  0
  4  9  1  0
  5 10  2  0
  7 10  1  0
  5 11  1  0
  8 12  1  0
  8 13  2  0
  9 14  1  0
 14 15  1  0
 14 16  2  0
M  END
