
     RDKit          3D

 16 17  0  0  0  0  0  0  0  0999 V2000
  -14.6824   28.3033  -22.6998 O   0  0  0  0  0  0  0  0  0  0  0  0
  -15.6151   29.1821  -22.6283 C   0  0  0  0  0  0  0  0  0  0  0  0
  -16.8401   28.7630  -22.4029 N   0  0  0  0  0  0  0  0  0  0  0  0
  -15.3869   30.4902  -22.6749 N   0  0  0  0  0  0  0  0  0  0  0  0
  -14.8173   31.1066  -23.5799 C   0  0  0  0  0  0  0  0  0  0  0  0
  -15.8097   31.8598  -24.3532 C   0  0  0  0  0  0  0  0  0  0  0  0
  -17.1802   31.9069  -23.9640 C   0  0  0  0  0  0  0  0  0  0  0  0
  -15.3472   32.8994  -25.2637 C   0  0  0  0  0  0  0  0  0  0  0  0
  -16.2068   33.7380  -25.8691 C   0  0  0  0  0  0  0  0  0  0  0  0
  -15.8019   34.7537  -26.8670 C   0  0  0  0  0  0  0  0  0  0  0  0
  -17.6145   30.8921  -23.0404 C   0  0  0  0  0  0  0  0  0  0  0  0
  -17.6143   33.5800  -25.5689 C   0  0  0  0  0  0  0  0  0  0  0  0
  -17.7629   29.5564  -23.1770 C   0  0  0  0  0  0  0  0  0  0  0  0
  -17.9851   32.7024  -24.6403 N   0  0  0  0  0  0  0  0  0  0  0  0
  -15.7274   35.9180  -26.4003 O   0  0  0  0  0  0  0  0  0  0  0  0
  -15.3240   34.4874  -27.9828 O   0  0  0  0  0  0  0  0  0  0  0  0
  1  2  2  0
  2  3  1  0
  2  4  1  0
  4  5  1  0
  5  6  1  0
  6  7  1  0
  6  8  2  0
  8  9  1  0
  9 10  1  0
  7 11  1  0
  9 12  2  0
  3 13  1  0
 11 13  1  0
  7 14  2  0
 12 14  1  0
 10 15  1  0
 10 16  2  0
M  END
