
     RDKit          3D

 16 17  0  0  0  0  0  0  0  0999 V2000
  -15.8083   32.7177  -28.8896 C   0  0  0  0  0  0  0  0  0  0  0  0
  -15.9633   33.9835  -28.7270 C   0  0  0  0  0  0  0  0  0  0  0  0
  -16.4678   34.2285  -27.5591 C   0  0  0  0  0  0  0  0  0  0  0  0
  -16.8233   35.6241  -27.0797 C   0  0  0  0  0  0  0  0  0  0  0  0
  -16.2448   31.9956  -27.8463 N   0  0  0  0  0  0  0  0  0  0  0  0
  -17.1311   35.5787  -25.6825 C   0  0  0  0  0  0  0  0  0  0  0  0
  -16.6885   33.0343  -26.9460 C   0  0  0  0  0  0  0  0  0  0  0  0
  -17.0984   33.0610  -25.6244 C   0  0  0  0  0  0  0  0  0  0  0  0
  -17.3396   34.3024  -24.9673 C   0  0  0  0  0  0  0  0  0  0  0  0
  -17.2883   31.7909  -24.8364 C   0  0  0  0  0  0  0  0  0  0  0  0
  -16.3141   31.5875  -23.8735 C   0  0  0  0  0  0  0  0  0  0  0  0
  -14.9868   31.9670  -24.0908 O   0  0  0  0  0  0  0  0  0  0  0  0
  -18.6532   32.0071  -24.2044 O   0  0  0  0  0  0  0  0  0  0  0  0
  -16.4778   30.7171  -22.7908 C   0  0  0  0  0  0  0  0  0  0  0  0
  -17.6545   30.1680  -22.7082 O   0  0  0  0  0  0  0  0  0  0  0  0
  -15.5206   30.2813  -22.0097 O   0  0  0  0  0  0  0  0  0  0  0  0
  1  2  1  0
  2  3  2  0
  3  4  1  0
  1  5  2  0
  4  6  2  0
  3  7  1  0
  5  7  1  0
  7  8  2  0
  6  9  1  0
  8  9  1  0
  8 10  1  0
 10 11  1  0
 11 12  1  0
 10 13  1  0
 11 14  1  0
 14 15  2  0
 14 16  1  0
M  END
