
     RDKit          3D

 12 12  0  0  0  0  0  0  0  0999 V2000
  -18.2926   30.0455  -22.6046 O   0  0  0  0  0  0  0  0  0  0  0  0
  -17.3348   30.7058  -22.9484 C   0  0  0  0  0  0  0  0  0  0  0  0
  -15.9973   30.4232  -22.8762 C   0  0  0  0  0  0  0  0  0  0  0  0
  -17.6952   31.9462  -23.6712 N   0  0  0  0  0  0  0  0  0  0  0  0
  -16.8604   32.6166  -24.2535 C   0  0  0  0  0  0  0  0  0  0  0  0
  -17.3017   33.8534  -25.0089 C   0  0  0  0  0  0  0  0  0  0  0  0
  -19.1814   32.1968  -23.8058 C   0  0  0  0  0  0  0  0  0  0  0  0
  -19.4790   32.5299  -25.1948 C   0  0  0  0  0  0  0  0  0  0  0  0
  -18.5775   33.5781  -25.8012 C   0  0  0  0  0  0  0  0  0  0  0  0
  -16.1083   34.2477  -26.0337 N   0  0  0  0  0  0  0  0  0  0  0  0
  -15.5457   29.5557  -22.1673 C   0  0  0  0  0  0  0  0  0  0  0  0
  -16.4882   34.5775  -27.3987 C   0  0  0  0  0  0  0  0  0  0  0  0
  1  2  2  0
  2  3  1  0
  2  4  1  0
  4  5  1  0
  5  6  1  0
  4  7  1  0
  7  8  1  0
  6  9  1  0
  8  9  1  0
  6 10  1  0
  3 11  1  0
 10 12  1  0
M  END
