
     RDKit          3D

 16 16  0  0  0  0  0  0  0  0999 V2000
  -16.3474   36.4961  -20.6363 O   0  0  0  0  0  0  0  0  0  0  0  0
  -17.7051   36.9438  -21.1925 P   0  0  0  0  0  0  0  0  0  0  0  0
  -17.7820   36.2280  -22.5043 O   0  0  0  0  0  0  0  0  0  0  0  0
  -18.8331   36.3525  -20.2709 O   0  0  0  0  0  0  0  0  0  0  0  0
  -17.3241   35.0623  -23.0663 C   0  0  0  0  0  0  0  0  0  0  0  0
  -17.8513   38.3874  -21.1484 O   0  0  0  0  0  0  0  0  0  0  0  0
  -16.6918   35.2718  -24.3888 C   0  0  0  0  0  0  0  0  0  0  0  0
  -15.5462   34.6858  -24.7023 C   0  0  0  0  0  0  0  0  0  0  0  0
  -15.5892   33.2351  -24.4683 C   0  0  0  0  0  0  0  0  0  0  0  0
  -14.5440   32.4656  -24.3300 N   0  0  0  0  0  0  0  0  0  0  0  0
  -16.8393   32.5838  -24.3772 C   0  0  0  0  0  0  0  0  0  0  0  0
  -14.5900   31.1901  -23.9127 C   0  0  0  0  0  0  0  0  0  0  0  0
  -17.0140   31.2744  -24.0362 C   0  0  0  0  0  0  0  0  0  0  0  0
  -18.3047   30.7076  -23.8808 N   0  0  0  0  0  0  0  0  0  0  0  0
  -15.8809   30.6340  -23.6914 N   0  0  0  0  0  0  0  0  0  0  0  0
  -14.6954   34.9777  -25.6958 O   0  0  0  0  0  0  0  0  0  0  0  0
  1  2  1  0
  2  3  1  0
  2  4  1  0
  3  5  1  0
  2  6  2  0
  5  7  1  0
  7  8  1  0
  8  9  1  0
  9 10  1  0
  9 11  2  0
 10 12  2  0
 11 13  1  0
 13 14  1  0
 12 15  1  0
 13 15  2  0
  8 16  1  0
M  END
