
     RDKit          3D

 16 16  0  0  0  0  0  0  0  0999 V2000
  -15.1675   28.5144  -22.7967 O   0  0  0  0  0  0  0  0  0  0  0  0
  -15.9549   28.8606  -21.9693 C   0  0  0  0  0  0  0  0  0  0  0  0
  -16.3984   30.1366  -22.0659 N   0  0  0  0  0  0  0  0  0  0  0  0
  -17.5198   30.5090  -22.7530 C   0  0  0  0  0  0  0  0  0  0  0  0
  -16.3556   28.1118  -20.9287 N   0  0  0  0  0  0  0  0  0  0  0  0
  -17.4825   31.8426  -23.3841 C   0  0  0  0  0  0  0  0  0  0  0  0
  -18.4567   29.9696  -22.9467 O   0  0  0  0  0  0  0  0  0  0  0  0
  -18.5334   32.7363  -23.1753 C   0  0  0  0  0  0  0  0  0  0  0  0
  -18.4721   34.0458  -23.8281 C   0  0  0  0  0  0  0  0  0  0  0  0
  -19.4372   34.9930  -23.5352 C   0  0  0  0  0  0  0  0  0  0  0  0
  -17.5190   34.2154  -24.9532 C   0  0  0  0  0  0  0  0  0  0  0  0
  -17.4111   35.4179  -25.6774 C   0  0  0  0  0  0  0  0  0  0  0  0
  -16.5540   33.1904  -25.2033 C   0  0  0  0  0  0  0  0  0  0  0  0
  -16.5298   31.9545  -24.4780 C   0  0  0  0  0  0  0  0  0  0  0  0
  -16.7102   36.2601  -25.2029 O   0  0  0  0  0  0  0  0  0  0  0  0
  -18.4470   35.8680  -26.1366 O   0  0  0  0  0  0  0  0  0  0  0  0
  1  2  2  0
  2  3  1  0
  3  4  1  0
  2  5  1  0
  4  6  1  0
  4  7  2  0
  6  8  1  0
  8  9  2  0
  9 10  1  0
  9 11  1  0
 11 12  1  0
 11 13  2  0
  6 14  2  0
 13 14  1  0
 12 15  1  0
 12 16  2  0
M  END
