
     RDKit          3D

 12 11  0  0  0  0  0  0  0  0999 V2000
  -16.3474   36.4961  -20.6363 O   0  0  0  0  0  0  0  0  0  0  0  0
  -17.7051   36.9438  -21.1925 P   0  0  0  0  0  0  0  0  0  0  0  0
  -17.7820   36.2280  -22.5043 O   0  0  0  0  0  0  0  0  0  0  0  0
  -17.7881   38.4217  -21.4082 O   0  0  0  0  0  0  0  0  0  0  0  0
  -18.7652   36.4330  -20.2396 O   0  0  0  0  0  0  0  0  0  0  0  0
  -16.9172   36.1239  -23.6663 C   0  0  0  0  0  0  0  0  0  0  0  0
  -17.3950   35.4479  -24.7853 C   0  0  0  0  0  0  0  0  0  0  0  0
  -16.4297   34.6880  -25.4591 C   0  0  0  0  0  0  0  0  0  0  0  0
  -18.7218   35.4282  -25.1225 O   0  0  0  0  0  0  0  0  0  0  0  0
  -16.9556   33.8998  -26.5620 C   0  0  0  0  0  0  0  0  0  0  0  0
  -16.4659   34.4427  -27.8120 C   0  0  0  0  0  0  0  0  0  0  0  0
  -16.6608   32.4812  -26.5819 C   0  0  0  0  0  0  0  0  0  0  0  0
  1  2  1  0
  2  3  1  0
  2  4  2  0
  2  5  1  0
  3  6  1  0
  6  7  1  0
  7  8  1  0
  7  9  2  0
  8 10  1  0
 10 11  1  0
 10 12  1  0
M  END
