
     RDKit          3D

 17 16  0  0  0  0  0  0  0  0999 V2000
  -15.9333   33.3737  -28.3999 O   0  0  0  0  0  0  0  0  0  0  0  0
  -16.6718   34.3270  -27.7445 C   0  0  0  0  0  0  0  0  0  0  0  0
  -17.5697   33.6280  -26.7082 C   0  0  0  0  0  0  0  0  0  0  0  0
  -16.8726   33.4648  -25.5711 N   0  0  0  0  0  0  0  0  0  0  0  0
  -16.3331   34.6011  -24.9072 C   0  0  0  0  0  0  0  0  0  0  0  0
  -15.6868   35.4547  -25.5459 O   0  0  0  0  0  0  0  0  0  0  0  0
  -16.9125   32.1802  -24.8298 C   0  0  0  0  0  0  0  0  0  0  0  0
  -18.2101   31.9190  -24.2543 C   0  0  0  0  0  0  0  0  0  0  0  0
  -16.5372   34.8195  -23.6203 N   0  0  0  0  0  0  0  0  0  0  0  0
  -19.2789   32.3353  -24.3750 O   0  0  0  0  0  0  0  0  0  0  0  0
  -16.9997   36.1188  -23.1926 C   0  0  0  0  0  0  0  0  0  0  0  0
  -17.5152   36.1562  -21.9393 O   0  0  0  0  0  0  0  0  0  0  0  0
  -18.2268   30.5736  -23.6227 N   0  0  0  0  0  0  0  0  0  0  0  0
  -18.5427   37.0323  -21.4325 P   0  0  0  0  0  0  0  0  0  0  0  0
  -19.1253   36.5346  -20.3536 O   0  0  0  0  0  0  0  0  0  0  0  0
  -19.5628   37.2624  -22.5789 O   0  0  0  0  0  0  0  0  0  0  0  0
  -17.7914   38.4246  -21.2757 O   0  0  0  0  0  0  0  0  0  0  0  0
  1  2  1  0
  2  3  1  0
  3  4  1  0
  4  5  1  0
  5  6  2  0
  4  7  1  0
  7  8  1  0
  5  9  1  0
  8 10  2  0
  9 11  1  0
 11 12  1  0
  8 13  1  0
 12 14  1  0
 14 15  1  0
 14 16  2  0
 14 17  1  0
M  END
