
     RDKit          3D

 17 18  0  0  0  0  0  0  0  0999 V2000
  -14.4756   28.2141  -22.9195 O   0  0  0  0  0  0  0  0  0  0  0  0
  -15.5608   28.9585  -22.4129 C   0  0  0  0  0  0  0  0  0  0  0  0
  -15.5525   30.2436  -22.6122 N   0  0  0  0  0  0  0  0  0  0  0  0
  -16.7853   28.3166  -22.1722 N   0  0  0  0  0  0  0  0  0  0  0  0
  -16.0888   31.0571  -23.4917 C   0  0  0  0  0  0  0  0  0  0  0  0
  -17.5984   31.2414  -23.4072 C   0  0  0  0  0  0  0  0  0  0  0  0
  -15.4798   31.6993  -24.2919 N   0  0  0  0  0  0  0  0  0  0  0  0
  -16.0984   32.5915  -25.2100 C   0  0  0  0  0  0  0  0  0  0  0  0
  -17.4952   32.7311  -25.1934 C   0  0  0  0  0  0  0  0  0  0  0  0
  -18.1184   33.6977  -26.2123 C   0  0  0  0  0  0  0  0  0  0  0  0
  -18.3720   30.4617  -22.4342 O   0  0  0  0  0  0  0  0  0  0  0  0
  -18.2864   32.0544  -24.2754 C   0  0  0  0  0  0  0  0  0  0  0  0
  -17.2706   34.0291  -27.3085 C   0  0  0  0  0  0  0  0  0  0  0  0
  -19.3160   34.2537  -26.2567 C   0  0  0  0  0  0  0  0  0  0  0  0
  -19.7911   35.0308  -27.2384 C   0  0  0  0  0  0  0  0  0  0  0  0
  -18.8683   35.2535  -28.3097 C   0  0  0  0  0  0  0  0  0  0  0  0
  -17.6224   34.7593  -28.3389 C   0  0  0  0  0  0  0  0  0  0  0  0
  1  2  2  0
  2  3  1  0
  2  4  1  0
  3  5  1  0
  5  6  1  0
  5  7  2  0
  7  8  1  0
  8  9  2  0
  9 10  1  0
  6 11  1  0
  6 12  2  0
  9 12  1  0
 10 13  1  0
 10 14  2  0
 14 15  1  0
 15 16  2  0
 13 17  2  0
 16 17  1  0
M  END
