
     RDKit          3D

 17 17  0  0  0  0  0  0  0  0999 V2000
  -18.2926   30.0455  -22.6046 O   0  0  0  0  0  0  0  0  0  0  0  0
  -17.3348   30.7058  -22.9484 C   0  0  0  0  0  0  0  0  0  0  0  0
  -15.9973   30.4232  -22.8762 N   0  0  0  0  0  0  0  0  0  0  0  0
  -17.6594   32.1156  -23.4700 C   0  0  0  0  0  0  0  0  0  0  0  0
  -15.0420   31.2296  -23.4128 C   0  0  0  0  0  0  0  0  0  0  0  0
  -15.6434   29.2192  -22.0393 C   0  0  0  0  0  0  0  0  0  0  0  0
  -16.7197   32.8240  -24.1659 C   0  0  0  0  0  0  0  0  0  0  0  0
  -16.9877   34.0759  -24.7825 N   0  0  0  0  0  0  0  0  0  0  0  0
  -15.4269   32.2663  -24.0332 N   0  0  0  0  0  0  0  0  0  0  0  0
  -19.0528   32.4978  -23.2988 N   0  0  0  0  0  0  0  0  0  0  0  0
  -16.6219   35.1858  -24.3513 C   0  0  0  0  0  0  0  0  0  0  0  0
  -17.6375   33.9793  -26.1046 C   0  0  0  0  0  0  0  0  0  0  0  0
  -16.9025   34.8986  -26.9438 C   0  0  0  0  0  0  0  0  0  0  0  0
  -16.0759   34.1688  -28.0522 C   0  0  0  0  0  0  0  0  0  0  0  0
  -16.8526   35.5986  -23.1400 C   0  0  0  0  0  0  0  0  0  0  0  0
  -17.6709   34.9923  -22.1929 O   0  0  0  0  0  0  0  0  0  0  0  0
  -16.3602   36.6698  -22.6218 O   0  0  0  0  0  0  0  0  0  0  0  0
  1  2  2  0
  2  3  1  0
  2  4  1  0
  3  5  1  0
  3  6  1  0
  4  7  2  0
  7  8  1  0
  5  9  2  0
  7  9  1  0
  4 10  1  0
  8 11  1  0
  8 12  1  0
 12 13  1  0
 13 14  1  0
 11 15  1  0
 15 16  2  0
 15 17  1  0
M  END
