
     RDKit          3D

 17 18  0  0  0  0  0  0  0  0999 V2000
  -16.3124   34.7008  -27.8652 C   0  0  0  0  0  0  0  0  0  0  0  0
  -16.4306   35.2041  -26.6408 C   0  0  0  0  0  0  0  0  0  0  0  0
  -16.5138   33.4839  -27.9147 C   0  0  0  0  0  0  0  0  0  0  0  0
  -16.8962   34.5142  -25.5282 C   0  0  0  0  0  0  0  0  0  0  0  0
  -17.0463   35.1963  -24.2208 C   0  0  0  0  0  0  0  0  0  0  0  0
  -17.2189   33.2043  -25.6699 C   0  0  0  0  0  0  0  0  0  0  0  0
  -16.2519   36.0762  -23.8482 O   0  0  0  0  0  0  0  0  0  0  0  0
  -18.0818   34.8301  -23.5060 N   0  0  0  0  0  0  0  0  0  0  0  0
  -16.9430   32.6065  -26.9413 C   0  0  0  0  0  0  0  0  0  0  0  0
  -17.6573   32.2526  -24.6499 N   0  0  0  0  0  0  0  0  0  0  0  0
  -18.9728   31.9603  -24.6424 C   0  0  0  0  0  0  0  0  0  0  0  0
  -16.6823   31.6442  -23.9565 C   0  0  0  0  0  0  0  0  0  0  0  0
  -15.3861   31.9081  -23.9260 O   0  0  0  0  0  0  0  0  0  0  0  0
  -17.1214   30.6031  -23.0491 C   0  0  0  0  0  0  0  0  0  0  0  0
  -16.2000   29.8523  -22.2585 C   0  0  0  0  0  0  0  0  0  0  0  0
  -18.3523   30.2282  -22.9045 N   0  0  0  0  0  0  0  0  0  0  0  0
  -19.2930   30.9479  -23.6583 C   0  0  0  0  0  0  0  0  0  0  0  0
  1  2  1  0
  1  3  2  0
  2  4  2  0
  4  5  1  0
  4  6  1  0
  5  7  2  0
  5  8  1  0
  3  9  1  0
  6  9  2  0
  6 10  1  0
 10 11  1  0
 10 12  1  0
 12 13  2  0
 12 14  1  0
 14 15  1  0
 14 16  2  0
 11 17  2  0
 16 17  1  0
M  END
