
     RDKit          3D

 17 16  0  0  0  0  0  0  0  0999 V2000
  -16.7932   37.5764  -21.4740 O   0  0  0  0  0  0  0  0  0  0  0  0
  -17.4668   36.3287  -21.5212 P   0  0  0  0  0  0  0  0  0  0  0  0
  -17.0679   35.5567  -22.7505 O   0  0  0  0  0  0  0  0  0  0  0  0
  -17.4997   35.3717  -24.0784 P   0  0  0  0  0  0  0  0  0  0  0  0
  -16.3058   35.6716  -24.8299 O   0  0  0  0  0  0  0  0  0  0  0  0
  -19.0007   36.8417  -21.6847 O   0  0  0  0  0  0  0  0  0  0  0  0
  -17.2679   35.7200  -20.1587 O   0  0  0  0  0  0  0  0  0  0  0  0
  -18.6894   36.0300  -24.4671 O   0  0  0  0  0  0  0  0  0  0  0  0
  -17.7248   33.8123  -24.3027 O   0  0  0  0  0  0  0  0  0  0  0  0
  -16.9079   32.6648  -24.3046 C   0  0  0  0  0  0  0  0  0  0  0  0
  -17.5765   31.4508  -23.8691 C   0  0  0  0  0  0  0  0  0  0  0  0
  -16.3582   32.5146  -25.6346 C   0  0  0  0  0  0  0  0  0  0  0  0
  -17.3620   33.1704  -26.5504 C   0  0  0  0  0  0  0  0  0  0  0  0
  -16.4963   33.5553  -27.8626 N   0  0  0  0  0  0  0  0  0  0  0  0
  -16.8687   30.6502  -22.9166 C   0  0  0  0  0  0  0  0  0  0  0  0
  -19.0022   31.2752  -23.6422 C   0  0  0  0  0  0  0  0  0  0  0  0
  -15.5314   30.6225  -22.9496 O   0  0  0  0  0  0  0  0  0  0  0  0
  1  2  2  0
  2  3  1  0
  3  4  1  0
  4  5  2  0
  2  6  1  0
  2  7  1  0
  4  8  1  0
  4  9  1  0
  9 10  1  0
 10 11  1  0
 10 12  1  0
 12 13  1  0
 13 14  1  0
 11 15  1  0
 11 16  1  0
 15 17  2  0
M  END
