
     RDKit          3D

 17 16  0  0  0  0  0  0  0  0999 V2000
  -14.5984   28.1292  -22.9236 O   0  0  0  0  0  0  0  0  0  0  0  0
  -15.7138   28.7083  -22.3715 C   0  0  0  0  0  0  0  0  0  0  0  0
  -16.6735   28.0483  -22.0220 O   0  0  0  0  0  0  0  0  0  0  0  0
  -15.7815   30.1630  -22.3531 C   0  0  0  0  0  0  0  0  0  0  0  0
  -17.0211   30.7141  -22.6673 N   0  0  0  0  0  0  0  0  0  0  0  0
  -16.9947   31.6109  -23.8374 C   0  0  0  0  0  0  0  0  0  0  0  0
  -18.2525   32.1364  -24.2566 C   0  0  0  0  0  0  0  0  0  0  0  0
  -15.8387   31.8898  -24.4197 O   0  0  0  0  0  0  0  0  0  0  0  0
  -18.8583   32.7701  -23.4112 O   0  0  0  0  0  0  0  0  0  0  0  0
  -18.0042   33.2195  -25.5301 C   0  0  0  0  0  0  0  0  0  0  0  0
  -18.9777   33.3603  -26.3293 C   0  0  0  0  0  0  0  0  0  0  0  0
  -18.5719   33.5531  -27.6613 O   0  0  0  0  0  0  0  0  0  0  0  0
  -16.7331   32.8224  -26.1665 N   0  0  0  0  0  0  0  0  0  0  0  0
  -20.1613   33.2743  -26.1475 O   0  0  0  0  0  0  0  0  0  0  0  0
  -16.0550   33.9921  -26.8321 C   0  0  0  0  0  0  0  0  0  0  0  0
  -16.0202   35.1933  -26.1792 C   0  0  0  0  0  0  0  0  0  0  0  0
  -16.3241   34.3249  -28.2230 C   0  0  0  0  0  0  0  0  0  0  0  0
  1  2  2  0
  2  3  1  0
  2  4  1  0
  4  5  1  0
  5  6  1  0
  6  7  1  0
  6  8  2  0
  7  9  1  0
  7 10  1  0
 10 11  1  0
 11 12  2  0
 10 13  1  0
 11 14  1  0
 13 15  1  0
 15 16  1  0
 15 17  1  0
M  END
