
     RDKit          3D

 17 17  0  0  0  0  0  0  0  0999 V2000
  -15.9333   33.3737  -28.3999 O   0  0  0  0  0  0  0  0  0  0  0  0
  -16.7726   33.1245  -27.5037 C   0  0  0  0  0  0  0  0  0  0  0  0
  -17.0463   34.2162  -26.5141 C   0  0  0  0  0  0  0  0  0  0  0  0
  -16.8573   33.8974  -25.2097 C   0  0  0  0  0  0  0  0  0  0  0  0
  -17.8676   33.2726  -24.5441 N   0  0  0  0  0  0  0  0  0  0  0  0
  -19.0285   33.8769  -24.2032 C   0  0  0  0  0  0  0  0  0  0  0  0
  -17.9063   31.8473  -24.5422 C   0  0  0  0  0  0  0  0  0  0  0  0
  -16.5188   35.1676  -24.4802 C   0  0  0  0  0  0  0  0  0  0  0  0
  -18.8604   34.7526  -23.1659 O   0  0  0  0  0  0  0  0  0  0  0  0
  -16.2712   35.4172  -26.8925 O   0  0  0  0  0  0  0  0  0  0  0  0
  -16.9986   31.2235  -23.6589 C   0  0  0  0  0  0  0  0  0  0  0  0
  -17.6137   30.4898  -22.6427 O   0  0  0  0  0  0  0  0  0  0  0  0
  -15.7192   31.2255  -23.6505 O   0  0  0  0  0  0  0  0  0  0  0  0
  -15.3056   35.5025  -24.4012 O   0  0  0  0  0  0  0  0  0  0  0  0
  -17.4472   36.0012  -23.9301 N   0  0  0  0  0  0  0  0  0  0  0  0
  -18.5108   35.8425  -23.3659 C   0  0  0  0  0  0  0  0  0  0  0  0
  -18.6913   36.7133  -22.1256 O   0  0  0  0  0  0  0  0  0  0  0  0
  1  2  1  0
  2  3  1  0
  3  4  1  0
  4  5  1  0
  5  6  1  0
  5  7  1  0
  4  8  1  0
  6  9  1  0
  3 10  1  0
  7 11  1  0
 11 12  2  0
 11 13  1  0
  8 14  2  0
  8 15  1  0
  9 16  1  0
 15 16  1  0
 16 17  2  0
M  END
