
     RDKit          3D

 17 18  0  0  0  0  0  0  0  0999 V2000
  -14.6538   27.9379  -22.8542 O   0  0  0  0  0  0  0  0  0  0  0  0
  -15.5100   28.8910  -22.3432 C   0  0  0  0  0  0  0  0  0  0  0  0
  -16.6014   28.4621  -21.8747 O   0  0  0  0  0  0  0  0  0  0  0  0
  -15.3815   30.2546  -22.6122 C   0  0  0  0  0  0  0  0  0  0  0  0
  -16.7220   30.8906  -22.7635 N   0  0  0  0  0  0  0  0  0  0  0  0
  -17.9296   30.5792  -22.2351 C   0  0  0  0  0  0  0  0  0  0  0  0
  -18.9359   31.0667  -23.2313 C   0  0  0  0  0  0  0  0  0  0  0  0
  -18.2272   31.4174  -24.4878 C   0  0  0  0  0  0  0  0  0  0  0  0
  -18.6228   32.5922  -25.3196 C   0  0  0  0  0  0  0  0  0  0  0  0
  -16.9352   32.1210  -23.8564 C   0  0  0  0  0  0  0  0  0  0  0  0
  -17.5420   33.0532  -26.1285 C   0  0  0  0  0  0  0  0  0  0  0  0
  -17.1755   34.4222  -26.0336 C   0  0  0  0  0  0  0  0  0  0  0  0
  -16.6311   34.8600  -24.9499 C   0  0  0  0  0  0  0  0  0  0  0  0
  -16.5416   34.9985  -27.3040 C   0  0  0  0  0  0  0  0  0  0  0  0
  -16.0233   36.0071  -24.8910 O   0  0  0  0  0  0  0  0  0  0  0  0
  -16.6372   34.2101  -23.7932 O   0  0  0  0  0  0  0  0  0  0  0  0
  -16.0835   32.9863  -23.8377 C   0  0  0  0  0  0  0  0  0  0  0  0
  1  2  2  0
  2  3  1  0
  2  4  1  0
  4  5  1  0
  5  6  1  0
  6  7  1  0
  7  8  1  0
  8  9  1  0
  5 10  1  0
  8 10  1  0
  9 11  1  0
 11 12  1  0
 12 13  1  0
 12 14  1  0
 13 15  2  0
 13 16  1  0
 10 17  1  0
 16 17  1  0
M  END
