
     RDKit          3D

 17 17  0  0  0  0  0  0  0  0999 V2000
  -14.5634   28.0068  -22.8279 O   0  0  0  0  0  0  0  0  0  0  0  0
  -15.5745   28.8804  -22.3954 C   0  0  0  0  0  0  0  0  0  0  0  0
  -16.6927   28.3417  -22.0607 O   0  0  0  0  0  0  0  0  0  0  0  0
  -15.4604   30.2294  -22.8014 C   0  0  0  0  0  0  0  0  0  0  0  0
  -14.7187   30.7985  -23.5901 O   0  0  0  0  0  0  0  0  0  0  0  0
  -16.9493   30.8005  -23.0283 C   0  0  0  0  0  0  0  0  0  0  0  0
  -17.0373   31.7480  -24.0519 N   0  0  0  0  0  0  0  0  0  0  0  0
  -17.9403   30.5133  -22.4477 O   0  0  0  0  0  0  0  0  0  0  0  0
  -18.2149   32.3608  -24.5393 C   0  0  0  0  0  0  0  0  0  0  0  0
  -18.1225   33.7659  -24.3959 C   0  0  0  0  0  0  0  0  0  0  0  0
  -18.2503   32.0359  -26.1153 C   0  0  0  0  0  0  0  0  0  0  0  0
  -17.5622   33.1121  -26.8979 C   0  0  0  0  0  0  0  0  0  0  0  0
  -16.4440   33.1713  -27.4625 C   0  0  0  0  0  0  0  0  0  0  0  0
  -18.3750   34.3124  -23.2846 O   0  0  0  0  0  0  0  0  0  0  0  0
  -17.8589   34.3883  -26.0572 C   0  0  0  0  0  0  0  0  0  0  0  0
  -16.0002   32.2010  -28.2670 C   0  0  0  0  0  0  0  0  0  0  0  0
  -15.0778   32.4740  -29.2519 O   0  0  0  0  0  0  0  0  0  0  0  0
  1  2  1  0
  2  3  2  0
  2  4  1  0
  4  5  1  0
  4  6  1  0
  6  7  1  0
  6  8  2  0
  7  9  1  0
  9 10  1  0
  9 11  1  0
 11 12  1  0
 12 13  2  3
 10 14  2  0
 10 15  1  0
 12 15  1  0
 13 16  1  0
 16 17  1  0
M  END
