
     RDKit          3D

 17 16  0  0  0  0  0  0  0  0999 V2000
  -16.3898   37.6991  -22.6971 O   0  0  0  0  0  0  0  0  0  0  0  0
  -17.2647   36.8296  -21.9599 P   0  0  0  0  0  0  0  0  0  0  0  0
  -18.6097   37.3624  -21.9255 O   0  0  0  0  0  0  0  0  0  0  0  0
  -17.4502   35.4442  -22.7352 O   0  0  0  0  0  0  0  0  0  0  0  0
  -17.0834   36.6406  -20.4085 O   0  0  0  0  0  0  0  0  0  0  0  0
  -16.9938   35.3369  -24.1265 C   0  0  0  0  0  0  0  0  0  0  0  0
  -16.8861   33.9729  -24.5749 C   0  0  0  0  0  0  0  0  0  0  0  0
  -17.9048   33.2124  -24.3205 O   0  0  0  0  0  0  0  0  0  0  0  0
  -16.5867   34.0720  -26.0618 C   0  0  0  0  0  0  0  0  0  0  0  0
  -17.7425   31.9152  -23.7059 C   0  0  0  0  0  0  0  0  0  0  0  0
  -16.6032   31.3380  -23.6202 C   0  0  0  0  0  0  0  0  0  0  0  0
  -18.8796   31.0758  -24.0117 C   0  0  0  0  0  0  0  0  0  0  0  0
  -16.3256   30.2068  -22.8450 C   0  0  0  0  0  0  0  0  0  0  0  0
  -19.4255   30.3013  -22.9368 O   0  0  0  0  0  0  0  0  0  0  0  0
  -15.1088   29.6579  -22.6627 O   0  0  0  0  0  0  0  0  0  0  0  0
  -15.8334   31.1918  -24.8166 O   0  0  0  0  0  0  0  0  0  0  0  0
  -15.6947   35.0042  -26.4727 O   0  0  0  0  0  0  0  0  0  0  0  0
  1  2  2  0
  2  3  1  0
  2  4  1  0
  2  5  1  0
  4  6  1  0
  6  7  1  0
  7  8  1  0
  7  9  1  0
  8 10  1  0
 10 11  1  0
 10 12  1  0
 11 13  1  0
 12 14  1  0
 13 15  2  0
 11 16  1  0
  9 17  1  0
M  END
