
     RDKit          3D

 17 16  0  0  0  0  0  0  0  0999 V2000
  -16.3898   37.6991  -22.6971 O   0  0  0  0  0  0  0  0  0  0  0  0
  -17.2647   36.8296  -21.9599 P   0  0  0  0  0  0  0  0  0  0  0  0
  -18.6097   37.3624  -21.9255 O   0  0  0  0  0  0  0  0  0  0  0  0
  -17.4502   35.4442  -22.7352 O   0  0  0  0  0  0  0  0  0  0  0  0
  -17.0834   36.6406  -20.4085 O   0  0  0  0  0  0  0  0  0  0  0  0
  -17.5804   35.2952  -24.1117 C   0  0  0  0  0  0  0  0  0  0  0  0
  -17.1958   33.9379  -24.5146 C   0  0  0  0  0  0  0  0  0  0  0  0
  -18.0458   33.0242  -24.2365 N   0  0  0  0  0  0  0  0  0  0  0  0
  -17.6351   31.6596  -24.1799 C   0  0  0  0  0  0  0  0  0  0  0  0
  -16.4201   31.4532  -23.5257 C   0  0  0  0  0  0  0  0  0  0  0  0
  -18.8463   31.0276  -23.4560 C   0  0  0  0  0  0  0  0  0  0  0  0
  -16.6347   34.0178  -25.9500 C   0  0  0  0  0  0  0  0  0  0  0  0
  -16.3564   30.5901  -22.6049 C   0  0  0  0  0  0  0  0  0  0  0  0
  -15.9380   35.0311  -26.3365 O   0  0  0  0  0  0  0  0  0  0  0  0
  -15.4908   29.5455  -22.6377 O   0  0  0  0  0  0  0  0  0  0  0  0
  -16.3456   32.8321  -26.6511 O   0  0  0  0  0  0  0  0  0  0  0  0
  -16.2445   32.9540  -27.9594 C   0  0  0  0  0  0  0  0  0  0  0  0
  1  2  2  0
  2  3  1  0
  2  4  1  0
  2  5  1  0
  4  6  1  0
  6  7  1  0
  7  8  1  0
  8  9  1  0
  9 10  1  0
  9 11  1  0
  7 12  1  0
 10 13  1  0
 12 14  1  0
 13 15  1  0
 12 16  1  0
 16 17  1  0
M  END
