
     RDKit          3D

 17 17  0  0  0  0  0  0  0  0999 V2000
  -16.5264   36.7113  -20.8172 O   0  0  0  0  0  0  0  0  0  0  0  0
  -17.7847   36.8794  -21.4958 P   0  0  0  0  0  0  0  0  0  0  0  0
  -17.7259   35.9228  -22.6193 O   0  0  0  0  0  0  0  0  0  0  0  0
  -19.0004   36.4078  -20.6041 O   0  0  0  0  0  0  0  0  0  0  0  0
  -18.1739   38.2761  -21.8658 O   0  0  0  0  0  0  0  0  0  0  0  0
  -18.4515   34.8578  -23.2015 C   0  0  0  0  0  0  0  0  0  0  0  0
  -17.7597   34.0872  -24.2260 C   0  0  0  0  0  0  0  0  0  0  0  0
  -17.6945   32.8040  -24.1059 N   0  0  0  0  0  0  0  0  0  0  0  0
  -16.7573   32.1079  -24.8750 C   0  0  0  0  0  0  0  0  0  0  0  0
  -16.5181   32.7149  -26.0300 C   0  0  0  0  0  0  0  0  0  0  0  0
  -18.0622   34.4692  -25.6982 C   0  0  0  0  0  0  0  0  0  0  0  0
  -16.9107   34.0029  -26.5102 C   0  0  0  0  0  0  0  0  0  0  0  0
  -15.0297   32.7869  -26.1853 O   0  0  0  0  0  0  0  0  0  0  0  0
  -16.8731   34.2016  -27.8613 O   0  0  0  0  0  0  0  0  0  0  0  0
  -19.0369   32.1742  -23.9720 C   0  0  0  0  0  0  0  0  0  0  0  0
  -19.0649   30.7613  -24.1353 C   0  0  0  0  0  0  0  0  0  0  0  0
  -20.1458   30.4561  -24.5548 O   0  0  0  0  0  0  0  0  0  0  0  0
  1  2  1  0
  2  3  1  0
  2  4  2  0
  2  5  1  0
  3  6  1  0
  6  7  1  0
  7  8  1  0
  8  9  1  0
  9 10  1  0
  7 11  1  0
 10 12  1  0
 11 12  1  0
 10 13  1  0
 12 14  1  0
  8 15  1  0
 15 16  1  0
 16 17  1  0
M  END
