
     RDKit          3D

 17 18  0  0  0  0  0  0  0  0999 V2000
  -14.5634   28.0068  -22.8279 O   0  0  0  0  0  0  0  0  0  0  0  0
  -15.6800   28.7239  -22.4078 C   0  0  0  0  0  0  0  0  0  0  0  0
  -15.6802   30.0594  -22.5022 C   0  0  0  0  0  0  0  0  0  0  0  0
  -16.5760   28.1186  -21.7194 O   0  0  0  0  0  0  0  0  0  0  0  0
  -15.0629   30.7053  -23.6263 C   0  0  0  0  0  0  0  0  0  0  0  0
  -15.7289   31.9125  -24.0569 C   0  0  0  0  0  0  0  0  0  0  0  0
  -14.9485   32.8178  -24.6756 N   0  0  0  0  0  0  0  0  0  0  0  0
  -17.0765   31.9993  -24.2871 N   0  0  0  0  0  0  0  0  0  0  0  0
  -15.8107   33.9022  -25.1291 C   0  0  0  0  0  0  0  0  0  0  0  0
  -17.1519   33.2818  -24.9353 C   0  0  0  0  0  0  0  0  0  0  0  0
  -15.5760   34.7798  -26.0800 N   0  0  0  0  0  0  0  0  0  0  0  0
  -18.1262   31.2962  -23.6267 C   0  0  0  0  0  0  0  0  0  0  0  0
  -16.6794   35.4802  -26.4980 C   0  0  0  0  0  0  0  0  0  0  0  0
  -18.2452   33.9469  -25.4924 C   0  0  0  0  0  0  0  0  0  0  0  0
  -16.4424   36.5976  -27.2798 O   0  0  0  0  0  0  0  0  0  0  0  0
  -18.0760   35.1314  -26.3210 C   0  0  0  0  0  0  0  0  0  0  0  0
  -15.4415   36.3696  -28.2941 C   0  0  0  0  0  0  0  0  0  0  0  0
  1  2  2  0
  2  3  1  0
  2  4  1  0
  3  5  1  0
  5  6  1  0
  6  7  2  0
  6  8  1  0
  7  9  1  0
  8 10  1  0
  9 10  1  0
  9 11  2  0
  8 12  1  0
 11 13  1  0
 10 14  2  0
 13 15  1  0
 13 16  2  0
 14 16  1  0
 15 17  1  0
M  END
