
     RDKit          3D

 18 18  0  0  0  0  0  0  0  0999 V2000
  -16.3474   36.4961  -20.6363 O   0  0  0  0  0  0  0  0  0  0  0  0
  -17.7051   36.9438  -21.1925 P   0  0  0  0  0  0  0  0  0  0  0  0
  -17.7820   36.2280  -22.5043 O   0  0  0  0  0  0  0  0  0  0  0  0
  -18.9026   36.5696  -20.3381 O   0  0  0  0  0  0  0  0  0  0  0  0
  -17.4100   34.9962  -23.0425 C   0  0  0  0  0  0  0  0  0  0  0  0
  -17.6693   34.8389  -24.3852 C   0  0  0  0  0  0  0  0  0  0  0  0
  -17.7084   38.4079  -21.3099 O   0  0  0  0  0  0  0  0  0  0  0  0
  -16.4266   34.8495  -25.1541 C   0  0  0  0  0  0  0  0  0  0  0  0
  -18.4901   33.5791  -24.4618 O   0  0  0  0  0  0  0  0  0  0  0  0
  -17.7710   32.5908  -25.3301 C   0  0  0  0  0  0  0  0  0  0  0  0
  -16.4102   33.3958  -25.7272 C   0  0  0  0  0  0  0  0  0  0  0  0
  -16.4653   35.6427  -26.3742 O   0  0  0  0  0  0  0  0  0  0  0  0
  -16.3752   33.2145  -27.1760 O   0  0  0  0  0  0  0  0  0  0  0  0
  -17.5598   31.4085  -24.5873 C   0  0  0  0  0  0  0  0  0  0  0  0
  -16.5505   31.5236  -23.5643 O   0  0  0  0  0  0  0  0  0  0  0  0
  -15.9359   30.3025  -22.9417 C   0  0  0  0  0  0  0  0  0  0  0  0
  -14.7494   30.1828  -22.9347 O   0  0  0  0  0  0  0  0  0  0  0  0
  -16.8217   29.6978  -22.0609 O   0  0  0  0  0  0  0  0  0  0  0  0
  1  2  1  0
  2  3  1  0
  2  4  1  0
  3  5  1  0
  5  6  1  0
  2  7  2  0
  6  8  1  0
  6  9  1  0
  9 10  1  0
  8 11  1  0
 10 11  1  0
  8 12  1  0
 11 13  1  0
 10 14  1  0
 14 15  1  0
 15 16  1  0
 16 17  2  0
 16 18  1  0
M  END
