
     RDKit          3D

 18 19  0  0  0  0  0  0  0  0999 V2000
  -16.3658   33.4944  -27.9297 C   0  0  0  0  0  0  0  0  0  0  0  0
  -16.3328   34.7078  -27.7381 C   0  0  0  0  0  0  0  0  0  0  0  0
  -17.1002   32.5742  -27.1244 C   0  0  0  0  0  0  0  0  0  0  0  0
  -16.8628   35.2894  -26.5494 C   0  0  0  0  0  0  0  0  0  0  0  0
  -16.7841   36.6037  -26.2689 O   0  0  0  0  0  0  0  0  0  0  0  0
  -17.5701   34.4108  -25.6270 C   0  0  0  0  0  0  0  0  0  0  0  0
  -18.2003   34.9890  -24.4282 C   0  0  0  0  0  0  0  0  0  0  0  0
  -17.6023   33.0093  -25.9294 C   0  0  0  0  0  0  0  0  0  0  0  0
  -18.2833   32.0431  -25.0462 C   0  0  0  0  0  0  0  0  0  0  0  0
  -17.5226   35.1146  -23.4133 O   0  0  0  0  0  0  0  0  0  0  0  0
  -19.3947   35.3207  -24.4865 O   0  0  0  0  0  0  0  0  0  0  0  0
  -17.5033   31.5913  -23.9096 C   0  0  0  0  0  0  0  0  0  0  0  0
  -16.1157   31.6480  -23.8819 C   0  0  0  0  0  0  0  0  0  0  0  0
  -15.2906   30.9331  -23.0216 C   0  0  0  0  0  0  0  0  0  0  0  0
  -15.8397   29.9013  -22.3761 C   0  0  0  0  0  0  0  0  0  0  0  0
  -17.1169   29.5821  -22.5705 C   0  0  0  0  0  0  0  0  0  0  0  0
  -17.9913   30.3482  -23.2954 N   0  0  0  0  0  0  0  0  0  0  0  0
  -15.1067   29.0380  -21.5996 F   0  0  0  0  0  0  0  0  0  0  0  0
  1  2  2  0
  1  3  1  0
  2  4  1  0
  4  5  1  0
  4  6  2  0
  6  7  1  0
  3  8  2  0
  6  8  1  0
  8  9  1  0
  7 10  1  0
  7 11  2  0
  9 12  1  0
 12 13  2  0
 13 14  1  0
 14 15  2  0
 15 16  1  0
 12 17  1  0
 16 17  2  0
 15 18  1  0
M  END
