
     RDKit          3D

 18 19  0  0  0  0  0  0  0  0999 V2000
  -14.7852   31.5926  -24.1597 N   0  0  0  0  0  0  0  0  0  0  0  0
  -15.3924   30.8150  -23.3107 C   0  0  0  0  0  0  0  0  0  0  0  0
  -15.5416   32.6078  -24.7567 C   0  0  0  0  0  0  0  0  0  0  0  0
  -16.7681   31.1920  -23.2253 C   0  0  0  0  0  0  0  0  0  0  0  0
  -14.8647   29.6959  -22.5172 C   0  0  0  0  0  0  0  0  0  0  0  0
  -14.1407   28.9550  -23.1570 O   0  0  0  0  0  0  0  0  0  0  0  0
  -15.8933   28.9760  -21.8465 C   0  0  0  0  0  0  0  0  0  0  0  0
  -17.6779   30.3453  -22.3789 C   0  0  0  0  0  0  0  0  0  0  0  0
  -17.2007   29.1119  -22.0448 N   0  0  0  0  0  0  0  0  0  0  0  0
  -17.0861   32.4087  -23.9960 S   0  0  0  0  0  0  0  0  0  0  0  0
  -18.8005   30.7275  -22.2059 O   0  0  0  0  0  0  0  0  0  0  0  0
  -15.1793   33.5684  -25.7507 N   0  0  0  0  0  0  0  0  0  0  0  0
  -16.1605   34.1784  -26.4966 C   0  0  0  0  0  0  0  0  0  0  0  0
  -16.1208   35.4969  -26.3513 O   0  0  0  0  0  0  0  0  0  0  0  0
  -16.6529   33.3925  -27.5626 C   0  0  0  0  0  0  0  0  0  0  0  0
  -15.9397   33.4042  -28.6620 F   0  0  0  0  0  0  0  0  0  0  0  0
  -17.5396   32.5805  -27.2473 F   0  0  0  0  0  0  0  0  0  0  0  0
  -17.6400   34.0569  -28.2853 F   0  0  0  0  0  0  0  0  0  0  0  0
  1  2  1  0
  1  3  2  0
  2  4  2  0
  2  5  1  0
  5  6  1  0
  5  7  1  0
  4  8  1  0
  7  9  1  0
  8  9  1  0
  3 10  1  0
  4 10  1  0
  8 11  2  0
  3 12  1  0
 12 13  1  0
 13 14  2  0
 13 15  1  0
 15 16  1  0
 15 17  1  0
 15 18  1  0
M  END
