
     RDKit          3D

 18 17  0  0  0  0  0  0  0  0999 V2000
  -16.3474   36.4961  -20.6363 O   0  0  0  0  0  0  0  0  0  0  0  0
  -17.7051   36.9438  -21.1925 P   0  0  0  0  0  0  0  0  0  0  0  0
  -17.7820   36.2280  -22.5043 O   0  0  0  0  0  0  0  0  0  0  0  0
  -17.0522   36.1398  -23.7776 C   0  0  0  0  0  0  0  0  0  0  0  0
  -17.0656   35.0115  -24.5074 C   0  0  0  0  0  0  0  0  0  0  0  0
  -18.8525   36.3857  -20.3470 O   0  0  0  0  0  0  0  0  0  0  0  0
  -17.8570   38.3649  -21.4676 O   0  0  0  0  0  0  0  0  0  0  0  0
  -15.9073   34.3431  -24.8170 C   0  0  0  0  0  0  0  0  0  0  0  0
  -18.0820   34.5572  -25.0777 O   0  0  0  0  0  0  0  0  0  0  0  0
  -14.9711   34.9518  -25.4657 O   0  0  0  0  0  0  0  0  0  0  0  0
  -16.1424   33.0096  -25.5705 C   0  0  0  0  0  0  0  0  0  0  0  0
  -16.8504   33.0031  -26.6685 C   0  0  0  0  0  0  0  0  0  0  0  0
  -16.1543   33.7013  -27.7555 N   0  0  0  0  0  0  0  0  0  0  0  0
  -16.7550   31.9899  -24.6138 C   0  0  0  0  0  0  0  0  0  0  0  0
  -15.9482   31.3472  -23.6493 N   0  0  0  0  0  0  0  0  0  0  0  0
  -16.5079   30.4681  -22.7736 C   0  0  0  0  0  0  0  0  0  0  0  0
  -15.5797   29.6927  -22.0462 N   0  0  0  0  0  0  0  0  0  0  0  0
  -17.6556   30.1792  -22.7237 O   0  0  0  0  0  0  0  0  0  0  0  0
  1  2  1  0
  2  3  1  0
  3  4  1  0
  4  5  1  0
  2  6  2  0
  2  7  1  0
  5  8  1  0
  5  9  2  0
  8 10  1  0
  8 11  1  0
 11 12  1  0
 12 13  1  0
 11 14  1  0
 14 15  1  0
 15 16  1  0
 16 17  1  0
 16 18  2  0
M  END
