
     RDKit          3D

 18 19  0  0  0  0  0  0  0  0999 V2000
  -17.5932   30.1573  -22.6492 N   0  0  0  0  0  0  0  0  0  0  0  0
  -16.3211   30.0927  -22.7467 C   0  0  0  0  0  0  0  0  0  0  0  0
  -15.7274   31.1384  -23.4350 N   0  0  0  0  0  0  0  0  0  0  0  0
  -15.6388   29.1529  -21.9796 N   0  0  0  0  0  0  0  0  0  0  0  0
  -16.3118   31.9980  -24.1685 C   0  0  0  0  0  0  0  0  0  0  0  0
  -17.7126   31.9910  -24.1359 C   0  0  0  0  0  0  0  0  0  0  0  0
  -18.3815   31.0224  -23.3604 C   0  0  0  0  0  0  0  0  0  0  0  0
  -18.5860   32.9722  -24.8392 C   0  0  0  0  0  0  0  0  0  0  0  0
  -18.4482   34.2469  -24.6001 N   0  0  0  0  0  0  0  0  0  0  0  0
  -19.7262   32.6006  -25.5468 O   0  0  0  0  0  0  0  0  0  0  0  0
  -19.2132   35.2927  -25.3021 C   0  0  0  0  0  0  0  0  0  0  0  0
  -19.6665   30.7523  -23.3238 O   0  0  0  0  0  0  0  0  0  0  0  0
  -19.4423   36.3423  -24.4892 C   0  0  0  0  0  0  0  0  0  0  0  0
  -18.3293   36.8778  -23.8649 O   0  0  0  0  0  0  0  0  0  0  0  0
  -17.6075   36.0815  -22.8646 P   0  0  0  0  0  0  0  0  0  0  0  0
  -17.2164   34.8549  -24.0246 C   0  0  0  0  0  0  0  0  0  0  0  0
  -16.3355   36.7974  -22.3959 O   0  0  0  0  0  0  0  0  0  0  0  0
  -18.2851   35.4548  -21.7698 O   0  0  0  0  0  0  0  0  0  0  0  0
  1  2  1  0
  2  3  2  0
  2  4  1  0
  3  5  1  0
  5  6  2  0
  1  7  1  0
  6  7  1  0
  6  8  1  0
  8  9  1  0
  8 10  2  0
  9 11  1  0
  7 12  2  0
 11 13  1  0
 13 14  1  0
 14 15  1  0
  9 16  1  0
 15 16  1  0
 15 17  2  0
 15 18  1  0
M  END
