
     RDKit          3D

 18 18  0  0  0  0  0  0  0  0999 V2000
  -18.2926   30.0455  -22.6046 O   0  0  0  0  0  0  0  0  0  0  0  0
  -17.3348   30.7058  -22.9484 C   0  0  0  0  0  0  0  0  0  0  0  0
  -15.9973   30.4232  -22.8762 N   0  0  0  0  0  0  0  0  0  0  0  0
  -17.6594   32.1156  -23.4700 C   0  0  0  0  0  0  0  0  0  0  0  0
  -15.0420   31.2296  -23.4128 C   0  0  0  0  0  0  0  0  0  0  0  0
  -15.6434   29.2192  -22.0393 C   0  0  0  0  0  0  0  0  0  0  0  0
  -16.7197   32.8240  -24.1659 C   0  0  0  0  0  0  0  0  0  0  0  0
  -16.9877   34.0759  -24.7825 N   0  0  0  0  0  0  0  0  0  0  0  0
  -17.9866   34.3544  -25.5007 C   0  0  0  0  0  0  0  0  0  0  0  0
  -15.4675   32.3733  -24.1056 N   0  0  0  0  0  0  0  0  0  0  0  0
  -19.2040   32.3464  -23.7067 O   0  0  0  0  0  0  0  0  0  0  0  0
  -16.4290   35.2188  -24.0759 C   0  0  0  0  0  0  0  0  0  0  0  0
  -16.8538   35.9867  -23.1180 C   0  0  0  0  0  0  0  0  0  0  0  0
  -16.6143   37.0598  -22.7799 O   0  0  0  0  0  0  0  0  0  0  0  0
  -18.2264   35.4895  -22.7302 O   0  0  0  0  0  0  0  0  0  0  0  0
  -17.9948   33.3670  -26.6769 C   0  0  0  0  0  0  0  0  0  0  0  0
  -16.7969   33.6912  -27.5850 C   0  0  0  0  0  0  0  0  0  0  0  0
  -16.5047   35.0199  -27.8237 C   0  0  0  0  0  0  0  0  0  0  0  0
  1  2  2  0
  2  3  1  0
  2  4  1  0
  3  5  1  0
  3  6  1  0
  4  7  2  0
  7  8  1  0
  8  9  1  0
  5 10  2  0
  7 10  1  0
  4 11  1  0
  8 12  1  0
 12 13  1  0
 13 14  2  0
 13 15  1  0
  9 16  1  0
 16 17  1  0
 17 18  1  0
M  END
