
     RDKit          3D

 18 19  0  0  0  0  0  0  0  0999 V2000
  -17.5932   30.1573  -22.6492 N   0  0  0  0  0  0  0  0  0  0  0  0
  -18.3311   30.8404  -22.9658 C   0  0  0  0  0  0  0  0  0  0  0  0
  -17.8455   32.0087  -23.7426 C   0  0  0  0  0  0  0  0  0  0  0  0
  -18.6364   33.0880  -24.2925 C   0  0  0  0  0  0  0  0  0  0  0  0
  -17.8347   34.0508  -25.1761 N   0  0  0  0  0  0  0  0  0  0  0  0
  -17.1530   33.5598  -26.2259 C   0  0  0  0  0  0  0  0  0  0  0  0
  -17.4069   35.2559  -24.4832 C   0  0  0  0  0  0  0  0  0  0  0  0
  -19.5221   31.1443  -22.4626 O   0  0  0  0  0  0  0  0  0  0  0  0
  -16.2347   30.0133  -23.1267 C   0  0  0  0  0  0  0  0  0  0  0  0
  -15.7980   31.0642  -23.8161 C   0  0  0  0  0  0  0  0  0  0  0  0
  -16.5610   32.0196  -24.1970 C   0  0  0  0  0  0  0  0  0  0  0  0
  -15.3705   28.8176  -22.4812 C   0  0  0  0  0  0  0  0  0  0  0  0
  -18.2682   36.1745  -24.1276 O   0  0  0  0  0  0  0  0  0  0  0  0
  -16.0654   35.6759  -24.5163 N   0  0  0  0  0  0  0  0  0  0  0  0
  -16.0032   32.7344  -25.5085 C   0  0  0  0  0  0  0  0  0  0  0  0
  -17.8103   32.5767  -27.0023 C   0  0  0  0  0  0  0  0  0  0  0  0
  -16.6778   34.5914  -27.1332 C   0  0  0  0  0  0  0  0  0  0  0  0
  -15.9752   33.9776  -28.2569 O   0  0  0  0  0  0  0  0  0  0  0  0
  1  2  1  0
  2  3  1  0
  3  4  1  0
  4  5  1  0
  5  6  1  0
  5  7  1  0
  2  8  2  0
  1  9  1  0
  9 10  2  0
  3 11  2  0
 10 11  1  0
  9 12  1  0
  7 13  2  0
  7 14  1  0
  6 15  1  0
 11 15  1  0
  6 16  1  0
  6 17  1  0
 17 18  1  0
M  END
