
     RDKit          3D

 13 12  0  0  0  0  0  0  0  0999 V2000
  -18.2926   30.0455  -22.6046 O   0  0  0  0  0  0  0  0  0  0  0  0
  -17.0712   30.2332  -22.7311 C   0  0  0  0  0  0  0  0  0  0  0  0
  -16.6776   31.3968  -23.2780 N   0  0  0  0  0  0  0  0  0  0  0  0
  -16.0567   29.3682  -22.0229 C   0  0  0  0  0  0  0  0  0  0  0  0
  -17.5392   32.2759  -24.0607 C   0  0  0  0  0  0  0  0  0  0  0  0
  -16.7431   33.1609  -24.9430 C   0  0  0  0  0  0  0  0  0  0  0  0
  -15.4729   28.4389  -22.8126 C   0  0  0  0  0  0  0  0  0  0  0  0
  -17.4015   33.8701  -25.9354 C   0  0  0  0  0  0  0  0  0  0  0  0
  -16.5336   34.1141  -27.0642 C   0  0  0  0  0  0  0  0  0  0  0  0
  -15.6829   32.2802  -25.3191 O   0  0  0  0  0  0  0  0  0  0  0  0
  -16.4697   33.2355  -28.0870 O   0  0  0  0  0  0  0  0  0  0  0  0
  -15.7607   35.0790  -27.0581 O   0  0  0  0  0  0  0  0  0  0  0  0
  -14.7090   27.5651  -22.1267 O   0  0  0  0  0  0  0  0  0  0  0  0
  1  2  2  0
  2  3  1  0
  2  4  1  0
  3  5  1  0
  5  6  1  0
  4  7  1  0
  6  8  1  0
  8  9  1  0
  6 10  1  0
  9 11  2  0
  9 12  1  0
  7 13  1  0
M  END
