
     RDKit          3D

 18 18  0  0  0  0  0  0  0  0999 V2000
  -15.9333   33.3737  -28.3999 O   0  0  0  0  0  0  0  0  0  0  0  0
  -16.7726   33.1245  -27.5037 C   0  0  0  0  0  0  0  0  0  0  0  0
  -17.0463   34.2162  -26.5141 C   0  0  0  0  0  0  0  0  0  0  0  0
  -16.8573   33.8974  -25.2097 C   0  0  0  0  0  0  0  0  0  0  0  0
  -17.8676   33.2726  -24.5441 N   0  0  0  0  0  0  0  0  0  0  0  0
  -19.0285   33.8769  -24.2032 C   0  0  0  0  0  0  0  0  0  0  0  0
  -15.7301   34.2386  -24.7616 O   0  0  0  0  0  0  0  0  0  0  0  0
  -17.7065   31.8472  -24.1535 C   0  0  0  0  0  0  0  0  0  0  0  0
  -18.6764   31.2362  -23.6246 C   0  0  0  0  0  0  0  0  0  0  0  0
  -18.7294   35.0169  -23.2619 C   0  0  0  0  0  0  0  0  0  0  0  0
  -16.4210   31.4970  -23.5630 C   0  0  0  0  0  0  0  0  0  0  0  0
  -15.2711   31.9311  -24.0409 O   0  0  0  0  0  0  0  0  0  0  0  0
  -17.7951   35.4779  -22.8677 O   0  0  0  0  0  0  0  0  0  0  0  0
  -16.4417   30.9702  -22.4042 C   0  0  0  0  0  0  0  0  0  0  0  0
  -19.8588   35.4263  -22.5186 O   0  0  0  0  0  0  0  0  0  0  0  0
  -15.1672   30.4689  -21.8034 O   0  0  0  0  0  0  0  0  0  0  0  0
  -17.5587   30.0905  -22.0811 C   0  0  0  0  0  0  0  0  0  0  0  0
  -18.6987   30.3611  -22.5945 C   0  0  0  0  0  0  0  0  0  0  0  0
  1  2  1  0
  2  3  1  0
  3  4  1  0
  4  5  1  0
  5  6  1  0
  4  7  2  0
  5  8  1  0
  8  9  1  0
  6 10  1  0
  8 11  1  0
 11 12  1  0
 10 13  2  0
 11 14  2  0
 10 15  1  0
 14 16  1  0
 14 17  1  0
  9 18  1  0
 17 18  1  0
M  END
