
     RDKit          3D

 18 19  0  0  0  0  0  0  0  0999 V2000
  -14.6538   27.9379  -22.8542 O   0  0  0  0  0  0  0  0  0  0  0  0
  -15.5100   28.8910  -22.3432 C   0  0  0  0  0  0  0  0  0  0  0  0
  -16.6014   28.4621  -21.8747 O   0  0  0  0  0  0  0  0  0  0  0  0
  -15.3815   30.2546  -22.6122 C   0  0  0  0  0  0  0  0  0  0  0  0
  -16.7220   30.8906  -22.7635 N   0  0  0  0  0  0  0  0  0  0  0  0
  -17.9296   30.5792  -22.2351 C   0  0  0  0  0  0  0  0  0  0  0  0
  -18.9359   31.0667  -23.2313 C   0  0  0  0  0  0  0  0  0  0  0  0
  -18.2272   31.4174  -24.4878 C   0  0  0  0  0  0  0  0  0  0  0  0
  -16.8206   32.0505  -23.6501 C   0  0  0  0  0  0  0  0  0  0  0  0
  -18.7725   32.4797  -25.3505 C   0  0  0  0  0  0  0  0  0  0  0  0
  -15.6657   32.1555  -24.6240 C   0  0  0  0  0  0  0  0  0  0  0  0
  -15.8940   33.4140  -25.4642 C   0  0  0  0  0  0  0  0  0  0  0  0
  -15.8615   34.5189  -24.8815 O   0  0  0  0  0  0  0  0  0  0  0  0
  -17.9958   32.8411  -26.5703 C   0  0  0  0  0  0  0  0  0  0  0  0
  -18.7136   33.0492  -27.6905 O   0  0  0  0  0  0  0  0  0  0  0  0
  -16.9634   33.8677  -26.4556 C   0  0  0  0  0  0  0  0  0  0  0  0
  -16.4828   34.3773  -27.6972 C   0  0  0  0  0  0  0  0  0  0  0  0
  -15.8573   33.3966  -28.4698 O   0  0  0  0  0  0  0  0  0  0  0  0
  1  2  2  0
  2  3  1  0
  2  4  1  0
  4  5  1  0
  5  6  1  0
  6  7  1  0
  7  8  1  0
  5  9  1  0
  8  9  1  0
  8 10  1  0
  9 11  1  0
 11 12  1  0
 12 13  1  0
 10 14  1  0
 14 15  1  0
 12 16  1  0
 14 16  1  0
 16 17  1  0
 17 18  1  0
M  END
