
     RDKit          3D

 18 20  0  0  0  0  0  0  0  0999 V2000
  -15.8083   32.7177  -28.8896 C   0  0  0  0  0  0  0  0  0  0  0  0
  -15.9633   33.9835  -28.7270 C   0  0  0  0  0  0  0  0  0  0  0  0
  -16.3247   31.7979  -27.8927 C   0  0  0  0  0  0  0  0  0  0  0  0
  -16.9183   32.4018  -26.8421 C   0  0  0  0  0  0  0  0  0  0  0  0
  -16.3728   34.4806  -27.6485 C   0  0  0  0  0  0  0  0  0  0  0  0
  -17.5658   31.5512  -25.8109 C   0  0  0  0  0  0  0  0  0  0  0  0
  -18.9148   32.0686  -25.5521 C   0  0  0  0  0  0  0  0  0  0  0  0
  -17.0019   33.7585  -26.7271 C   0  0  0  0  0  0  0  0  0  0  0  0
  -16.9265   31.7135  -24.4800 N   0  0  0  0  0  0  0  0  0  0  0  0
  -19.4714   31.4021  -24.4139 C   0  0  0  0  0  0  0  0  0  0  0  0
  -15.6432   31.7627  -24.2046 C   0  0  0  0  0  0  0  0  0  0  0  0
  -14.8195   32.6390  -24.7212 C   0  0  0  0  0  0  0  0  0  0  0  0
  -17.8800   31.8361  -23.4213 C   0  0  0  0  0  0  0  0  0  0  0  0
  -13.5012   32.6866  -24.3314 C   0  0  0  0  0  0  0  0  0  0  0  0
  -17.8232   30.8108  -22.4200 O   0  0  0  0  0  0  0  0  0  0  0  0
  -15.1107   30.6487  -23.4976 C   0  0  0  0  0  0  0  0  0  0  0  0
  -13.8812   30.8211  -23.2825 C   0  0  0  0  0  0  0  0  0  0  0  0
  -13.1515   31.7163  -23.7463 C   0  0  0  0  0  0  0  0  0  0  0  0
  1  2  1  0
  1  3  2  0
  3  4  1  0
  2  5  2  0
  4  6  1  0
  6  7  1  0
  4  8  2  0
  5  8  1  0
  6  9  1  0
  7 10  1  0
  9 11  1  0
 11 12  2  0
  9 13  1  0
 10 13  1  0
 12 14  1  0
 13 15  1  0
 11 16  1  0
 16 17  2  0
 14 18  2  0
 17 18  1  0
M  END
