
     RDKit          3D

 18 18  0  0  0  0  0  0  0  0999 V2000
  -14.7229   35.1078  -25.3805 O   0  0  0  0  0  0  0  0  0  0  0  0
  -15.8786   34.8915  -24.8290 C   0  0  0  0  0  0  0  0  0  0  0  0
  -16.6856   33.9280  -25.4996 C   0  0  0  0  0  0  0  0  0  0  0  0
  -16.3685   35.4458  -23.8328 O   0  0  0  0  0  0  0  0  0  0  0  0
  -16.7647   34.1886  -26.9428 C   0  0  0  0  0  0  0  0  0  0  0  0
  -17.4276   32.8557  -24.9727 C   0  0  0  0  0  0  0  0  0  0  0  0
  -18.1135   31.9276  -25.7146 C   0  0  0  0  0  0  0  0  0  0  0  0
  -18.8852   30.9165  -25.0344 N   0  0  0  0  0  0  0  0  0  0  0  0
  -16.1067   35.0578  -27.6152 O   0  0  0  0  0  0  0  0  0  0  0  0
  -17.2783   33.1070  -27.6882 C   0  0  0  0  0  0  0  0  0  0  0  0
  -18.8230   30.8003  -23.6625 C   0  0  0  0  0  0  0  0  0  0  0  0
  -18.1102   32.1173  -27.1127 C   0  0  0  0  0  0  0  0  0  0  0  0
  -17.6829   30.6203  -22.9700 N   0  0  0  0  0  0  0  0  0  0  0  0
  -19.9440   30.8423  -23.1228 O   0  0  0  0  0  0  0  0  0  0  0  0
  -17.6444   29.6800  -22.0080 C   0  0  0  0  0  0  0  0  0  0  0  0
  -16.2375   29.1075  -21.8677 C   0  0  0  0  0  0  0  0  0  0  0  0
  -15.2583   29.7735  -22.2500 O   0  0  0  0  0  0  0  0  0  0  0  0
  -16.1052   27.8379  -21.5855 O   0  0  0  0  0  0  0  0  0  0  0  0
  1  2  1  0
  2  3  1  0
  2  4  2  0
  3  5  1  0
  3  6  2  0
  6  7  1  0
  7  8  1  0
  5  9  1  0
  5 10  2  0
  8 11  1  0
  7 12  2  0
 10 12  1  0
 11 13  1  0
 11 14  2  0
 13 15  1  0
 15 16  1  0
 16 17  2  0
 16 18  1  0
M  END
