
     RDKit          3D

 18 19  0  0  0  0  0  0  0  0999 V2000
  -14.6538   27.9379  -22.8542 O   0  0  0  0  0  0  0  0  0  0  0  0
  -15.5100   28.8910  -22.3432 C   0  0  0  0  0  0  0  0  0  0  0  0
  -16.6014   28.4621  -21.8747 O   0  0  0  0  0  0  0  0  0  0  0  0
  -15.3815   30.2546  -22.6122 C   0  0  0  0  0  0  0  0  0  0  0  0
  -16.7220   30.8906  -22.7635 N   0  0  0  0  0  0  0  0  0  0  0  0
  -17.9296   30.5792  -22.2351 C   0  0  0  0  0  0  0  0  0  0  0  0
  -18.9359   31.0667  -23.2313 C   0  0  0  0  0  0  0  0  0  0  0  0
  -18.1039   32.0033  -24.0493 C   0  0  0  0  0  0  0  0  0  0  0  0
  -16.7712   31.4397  -24.0310 C   0  0  0  0  0  0  0  0  0  0  0  0
  -18.5645   32.1550  -25.5395 C   0  0  0  0  0  0  0  0  0  0  0  0
  -19.8254   32.6903  -25.5760 O   0  0  0  0  0  0  0  0  0  0  0  0
  -17.5643   32.9060  -26.3675 C   0  0  0  0  0  0  0  0  0  0  0  0
  -17.5725   34.2587  -25.9463 C   0  0  0  0  0  0  0  0  0  0  0  0
  -17.3380   32.6994  -27.6664 C   0  0  0  0  0  0  0  0  0  0  0  0
  -16.0782   33.3140  -28.2666 C   0  0  0  0  0  0  0  0  0  0  0  0
  -16.4917   35.1573  -26.5521 C   0  0  0  0  0  0  0  0  0  0  0  0
  -15.4046   34.9523  -25.8226 O   0  0  0  0  0  0  0  0  0  0  0  0
  -16.2497   34.7053  -27.9422 C   0  0  0  0  0  0  0  0  0  0  0  0
  1  2  2  0
  2  3  1  0
  2  4  1  0
  4  5  1  0
  5  6  1  0
  6  7  1  0
  7  8  1  0
  5  9  1  0
  8  9  1  0
  8 10  1  0
 10 11  1  0
 10 12  1  0
 12 13  1  0
 12 14  1  0
 14 15  1  0
 13 16  1  0
 16 17  1  0
 15 18  1  0
 16 18  1  0
M  END
