
     RDKit          3D

 18 17  0  0  0  0  0  0  0  0999 V2000
  -16.3474   36.4961  -20.6363 O   0  0  0  0  0  0  0  0  0  0  0  0
  -17.7051   36.9438  -21.1925 P   0  0  0  0  0  0  0  0  0  0  0  0
  -17.7820   36.2280  -22.5043 O   0  0  0  0  0  0  0  0  0  0  0  0
  -18.8331   36.3525  -20.2709 O   0  0  0  0  0  0  0  0  0  0  0  0
  -17.3241   35.0623  -23.0663 C   0  0  0  0  0  0  0  0  0  0  0  0
  -17.8513   38.3874  -21.1484 O   0  0  0  0  0  0  0  0  0  0  0  0
  -17.4787   34.8959  -24.4021 C   0  0  0  0  0  0  0  0  0  0  0  0
  -17.4387   33.4199  -24.8038 C   0  0  0  0  0  0  0  0  0  0  0  0
  -16.2007   32.7513  -24.9314 C   0  0  0  0  0  0  0  0  0  0  0  0
  -16.3743   35.5624  -25.2098 C   0  0  0  0  0  0  0  0  0  0  0  0
  -16.0526   31.5013  -24.4464 O   0  0  0  0  0  0  0  0  0  0  0  0
  -16.7115   35.4887  -26.6642 C   0  0  0  0  0  0  0  0  0  0  0  0
  -18.5341   32.9865  -25.5635 O   0  0  0  0  0  0  0  0  0  0  0  0
  -15.6107   31.1395  -23.1914 C   0  0  0  0  0  0  0  0  0  0  0  0
  -16.3554   30.3966  -22.4530 C   0  0  0  0  0  0  0  0  0  0  0  0
  -17.7020   30.4817  -22.5000 O   0  0  0  0  0  0  0  0  0  0  0  0
  -15.9708   29.3564  -21.8021 O   0  0  0  0  0  0  0  0  0  0  0  0
  -16.0173   34.4212  -27.3972 O   0  0  0  0  0  0  0  0  0  0  0  0
  1  2  1  0
  2  3  1  0
  2  4  1  0
  3  5  1  0
  2  6  2  0
  5  7  1  0
  7  8  1  0
  8  9  1  0
  7 10  1  0
  9 11  1  0
 10 12  1  0
  8 13  1  0
 11 14  1  0
 14 15  1  0
 15 16  1  0
 15 17  2  0
 12 18  1  0
M  END
