
     RDKit          3D

 18 18  0  0  0  0  0  0  0  0999 V2000
  -14.5641   27.9429  -22.9616 O   0  0  0  0  0  0  0  0  0  0  0  0
  -15.4945   28.7790  -22.3161 C   0  0  0  0  0  0  0  0  0  0  0  0
  -15.4639   30.1098  -22.6289 C   0  0  0  0  0  0  0  0  0  0  0  0
  -16.8261   30.7553  -22.7022 C   0  0  0  0  0  0  0  0  0  0  0  0
  -16.9667   31.8001  -23.5852 C   0  0  0  0  0  0  0  0  0  0  0  0
  -17.8289   29.7021  -23.0014 O   0  0  0  0  0  0  0  0  0  0  0  0
  -15.9278   32.0980  -24.3612 O   0  0  0  0  0  0  0  0  0  0  0  0
  -18.1237   32.4061  -23.7120 N   0  0  0  0  0  0  0  0  0  0  0  0
  -18.3888   33.4455  -24.6997 C   0  0  0  0  0  0  0  0  0  0  0  0
  -17.9673   34.6327  -24.2023 C   0  0  0  0  0  0  0  0  0  0  0  0
  -18.9713   33.1853  -25.6137 C   0  0  0  0  0  0  0  0  0  0  0  0
  -17.3405   35.0152  -22.9183 C   0  0  0  0  0  0  0  0  0  0  0  0
  -19.0104   34.3776  -26.5360 C   0  0  0  0  0  0  0  0  0  0  0  0
  -16.6722   36.1933  -22.8579 N   0  0  0  0  0  0  0  0  0  0  0  0
  -19.6217   34.0460  -27.8953 F   0  0  0  0  0  0  0  0  0  0  0  0
  -17.9433   35.7508  -25.0945 C   0  0  0  0  0  0  0  0  0  0  0  0
  -18.5538   35.5465  -26.3097 C   0  0  0  0  0  0  0  0  0  0  0  0
  -16.9340   36.9487  -21.7252 O   0  0  0  0  0  0  0  0  0  0  0  0
  1  2  1  0
  2  3  1  0
  3  4  1  0
  4  5  1  0
  4  6  1  0
  5  7  2  0
  5  8  1  0
  8  9  1  0
  9 10  1  0
  9 11  2  0
 10 12  1  0
 11 13  1  0
 12 14  2  3
 13 15  1  0
 10 16  2  0
 13 17  2  0
 16 17  1  0
 14 18  1  0
M  END
