
     RDKit          3D

 18 18  0  0  0  0  0  0  0  0999 V2000
  -14.7229   35.1078  -25.3805 O   0  0  0  0  0  0  0  0  0  0  0  0
  -15.8786   34.8915  -24.8290 C   0  0  0  0  0  0  0  0  0  0  0  0
  -16.6856   33.9280  -25.4996 C   0  0  0  0  0  0  0  0  0  0  0  0
  -16.3685   35.4458  -23.8328 O   0  0  0  0  0  0  0  0  0  0  0  0
  -16.7647   34.1886  -26.9428 C   0  0  0  0  0  0  0  0  0  0  0  0
  -17.4276   32.8557  -24.9727 C   0  0  0  0  0  0  0  0  0  0  0  0
  -18.1135   31.9276  -25.7146 C   0  0  0  0  0  0  0  0  0  0  0  0
  -18.8852   30.9165  -25.0344 N   0  0  0  0  0  0  0  0  0  0  0  0
  -19.1003   30.9751  -23.6774 C   0  0  0  0  0  0  0  0  0  0  0  0
  -16.0850   34.9365  -27.6229 O   0  0  0  0  0  0  0  0  0  0  0  0
  -17.2740   32.9842  -27.7133 C   0  0  0  0  0  0  0  0  0  0  0  0
  -18.0150   32.0287  -27.1105 C   0  0  0  0  0  0  0  0  0  0  0  0
  -18.1818   30.2218  -22.9607 O   0  0  0  0  0  0  0  0  0  0  0  0
  -16.9315   30.2799  -22.9407 C   0  0  0  0  0  0  0  0  0  0  0  0
  -16.1613   29.1648  -22.4523 C   0  0  0  0  0  0  0  0  0  0  0  0
  -16.2236   31.1621  -23.5459 O   0  0  0  0  0  0  0  0  0  0  0  0
  -15.1292   28.7408  -22.9428 O   0  0  0  0  0  0  0  0  0  0  0  0
  -16.6854   28.4306  -21.5094 O   0  0  0  0  0  0  0  0  0  0  0  0
  1  2  1  0
  2  3  1  0
  2  4  2  0
  3  5  1  0
  3  6  2  0
  6  7  1  0
  7  8  1  0
  8  9  1  0
  5 10  1  0
  5 11  2  0
  7 12  2  0
 11 12  1  0
  9 13  1  0
 13 14  1  0
 14 15  1  0
 14 16  2  0
 15 17  2  0
 15 18  1  0
M  END
