
     RDKit          3D

 19 21  0  0  0  0  0  0  0  0999 V2000
  -18.2926   30.0455  -22.6046 O   0  0  0  0  0  0  0  0  0  0  0  0
  -17.3348   30.7058  -22.9484 C   0  0  0  0  0  0  0  0  0  0  0  0
  -15.9973   30.4232  -22.8762 C   0  0  0  0  0  0  0  0  0  0  0  0
  -17.6952   31.9462  -23.6712 N   0  0  0  0  0  0  0  0  0  0  0  0
  -15.5910   29.2113  -22.1676 C   0  0  0  0  0  0  0  0  0  0  0  0
  -15.0266   31.2053  -23.4011 C   0  0  0  0  0  0  0  0  0  0  0  0
  -19.1096   32.2908  -23.8899 C   0  0  0  0  0  0  0  0  0  0  0  0
  -19.3770   32.1451  -25.3644 C   0  0  0  0  0  0  0  0  0  0  0  0
  -15.3462   32.2725  -24.1299 N   0  0  0  0  0  0  0  0  0  0  0  0
  -16.6744   32.6516  -24.2408 C   0  0  0  0  0  0  0  0  0  0  0  0
  -16.9866   33.9793  -24.7987 C   0  0  0  0  0  0  0  0  0  0  0  0
  -16.1877   35.0302  -24.5086 C   0  0  0  0  0  0  0  0  0  0  0  0
  -17.8400   33.9747  -25.9848 C   0  0  0  0  0  0  0  0  0  0  0  0
  -18.5824   32.9202  -26.4098 C   0  0  0  0  0  0  0  0  0  0  0  0
  -15.5992   29.1057  -20.9996 O   0  0  0  0  0  0  0  0  0  0  0  0
  -17.7032   35.1909  -26.7640 C   0  0  0  0  0  0  0  0  0  0  0  0
  -15.3212   28.0213  -22.8338 O   0  0  0  0  0  0  0  0  0  0  0  0
  -17.0491   36.2480  -26.3749 C   0  0  0  0  0  0  0  0  0  0  0  0
  -16.2254   36.1141  -25.2242 N   0  0  0  0  0  0  0  0  0  0  0  0
  1  2  2  0
  2  3  1  0
  2  4  1  0
  3  5  1  0
  3  6  2  0
  4  7  1  0
  7  8  1  0
  6  9  1  0
  4 10  1  0
  9 10  2  0
 10 11  1  0
 11 12  1  0
 11 13  2  0
  8 14  1  0
 13 14  1  0
  5 15  2  0
 13 16  1  0
  5 17  1  0
 16 18  2  0
 12 19  2  0
 18 19  1  0
M  END
