
     RDKit          3D

 19 20  0  0  0  0  0  0  0  0999 V2000
  -16.3658   33.4944  -27.9297 C   0  0  0  0  0  0  0  0  0  0  0  0
  -16.3328   34.7078  -27.7381 C   0  0  0  0  0  0  0  0  0  0  0  0
  -17.1002   32.5742  -27.1244 C   0  0  0  0  0  0  0  0  0  0  0  0
  -16.8628   35.2894  -26.5494 C   0  0  0  0  0  0  0  0  0  0  0  0
  -16.7841   36.6037  -26.2689 O   0  0  0  0  0  0  0  0  0  0  0  0
  -17.5701   34.4108  -25.6270 C   0  0  0  0  0  0  0  0  0  0  0  0
  -18.2003   34.9890  -24.4282 C   0  0  0  0  0  0  0  0  0  0  0  0
  -17.6023   33.0093  -25.9294 C   0  0  0  0  0  0  0  0  0  0  0  0
  -18.2833   32.0431  -25.0462 C   0  0  0  0  0  0  0  0  0  0  0  0
  -17.5226   35.1146  -23.4133 O   0  0  0  0  0  0  0  0  0  0  0  0
  -19.3947   35.3207  -24.4865 O   0  0  0  0  0  0  0  0  0  0  0  0
  -17.5033   31.5913  -23.9096 C   0  0  0  0  0  0  0  0  0  0  0  0
  -16.1157   31.6480  -23.8819 C   0  0  0  0  0  0  0  0  0  0  0  0
  -15.2906   30.9331  -23.0216 C   0  0  0  0  0  0  0  0  0  0  0  0
  -18.0961   30.5599  -23.0524 C   0  0  0  0  0  0  0  0  0  0  0  0
  -13.9516   31.1445  -23.1545 O   0  0  0  0  0  0  0  0  0  0  0  0
  -17.3790   30.0503  -22.2581 C   0  0  0  0  0  0  0  0  0  0  0  0
  -15.9391   30.0983  -22.2116 C   0  0  0  0  0  0  0  0  0  0  0  0
  -15.2110   29.3496  -21.3292 O   0  0  0  0  0  0  0  0  0  0  0  0
  1  2  2  0
  1  3  1  0
  2  4  1  0
  4  5  1  0
  4  6  2  0
  6  7  1  0
  3  8  2  0
  6  8  1  0
  8  9  1  0
  7 10  1  0
  7 11  2  0
  9 12  1  0
 12 13  2  0
 13 14  1  0
 12 15  1  0
 14 16  1  0
 15 17  2  0
 14 18  2  0
 17 18  1  0
 18 19  1  0
M  END
