
     RDKit          3D

 19 19  0  0  0  0  0  0  0  0999 V2000
  -16.3474   36.4961  -20.6363 O   0  0  0  0  0  0  0  0  0  0  0  0
  -17.7051   36.9438  -21.1925 P   0  0  0  0  0  0  0  0  0  0  0  0
  -17.7820   36.2280  -22.5043 O   0  0  0  0  0  0  0  0  0  0  0  0
  -17.7881   38.4217  -21.4082 O   0  0  0  0  0  0  0  0  0  0  0  0
  -18.7652   36.4330  -20.2396 O   0  0  0  0  0  0  0  0  0  0  0  0
  -16.9172   36.1239  -23.6663 C   0  0  0  0  0  0  0  0  0  0  0  0
  -17.3950   35.4479  -24.7853 C   0  0  0  0  0  0  0  0  0  0  0  0
  -16.4297   34.6880  -25.4591 C   0  0  0  0  0  0  0  0  0  0  0  0
  -16.4302   34.9612  -26.9157 C   0  0  0  0  0  0  0  0  0  0  0  0
  -16.6658   33.2587  -25.1983 C   0  0  0  0  0  0  0  0  0  0  0  0
  -15.7703   32.6741  -24.4082 N   0  0  0  0  0  0  0  0  0  0  0  0
  -16.9457   34.0076  -27.7237 O   0  0  0  0  0  0  0  0  0  0  0  0
  -15.9904   31.4850  -23.6408 C   0  0  0  0  0  0  0  0  0  0  0  0
  -17.2388   31.0908  -23.3667 C   0  0  0  0  0  0  0  0  0  0  0  0
  -14.8806   30.7852  -23.2604 O   0  0  0  0  0  0  0  0  0  0  0  0
  -15.1498   29.6425  -22.6681 C   0  0  0  0  0  0  0  0  0  0  0  0
  -18.4389   31.6913  -23.6331 O   0  0  0  0  0  0  0  0  0  0  0  0
  -17.4725   29.9027  -22.5706 C   0  0  0  0  0  0  0  0  0  0  0  0
  -16.3575   29.2174  -22.2458 C   0  0  0  0  0  0  0  0  0  0  0  0
  1  2  1  0
  2  3  1  0
  2  4  2  0
  2  5  1  0
  3  6  1  0
  6  7  1  0
  7  8  1  0
  8  9  1  0
  8 10  1  0
 10 11  1  0
  9 12  1  0
 11 13  1  0
 13 14  2  0
 13 15  1  0
 15 16  1  0
 14 17  1  0
 14 18  1  0
 16 19  2  0
 18 19  2  0
M  END
