
     RDKit          3D

 19 20  0  0  0  0  0  0  0  0999 V2000
  -15.1675   28.5144  -22.7967 O   0  0  0  0  0  0  0  0  0  0  0  0
  -15.9549   28.8606  -21.9693 C   0  0  0  0  0  0  0  0  0  0  0  0
  -16.3984   30.1366  -22.0659 N   0  0  0  0  0  0  0  0  0  0  0  0
  -17.5198   30.5090  -22.7530 C   0  0  0  0  0  0  0  0  0  0  0  0
  -16.3556   28.1118  -20.9287 N   0  0  0  0  0  0  0  0  0  0  0  0
  -17.4825   31.8426  -23.3841 C   0  0  0  0  0  0  0  0  0  0  0  0
  -18.4567   29.9696  -22.9467 O   0  0  0  0  0  0  0  0  0  0  0  0
  -18.5334   32.7363  -23.1753 C   0  0  0  0  0  0  0  0  0  0  0  0
  -18.4721   34.0458  -23.8281 C   0  0  0  0  0  0  0  0  0  0  0  0
  -19.4372   34.9930  -23.5352 C   0  0  0  0  0  0  0  0  0  0  0  0
  -17.5190   34.2154  -24.9532 C   0  0  0  0  0  0  0  0  0  0  0  0
  -17.4111   35.4179  -25.6774 C   0  0  0  0  0  0  0  0  0  0  0  0
  -16.5567   32.1703  -24.5488 C   0  0  0  0  0  0  0  0  0  0  0  0
  -16.5411   33.2373  -25.2120 C   0  0  0  0  0  0  0  0  0  0  0  0
  -16.7928   36.3057  -25.1824 O   0  0  0  0  0  0  0  0  0  0  0  0
  -16.9494   35.3319  -27.1819 C   0  0  0  0  0  0  0  0  0  0  0  0
  -16.3080   34.0838  -27.5203 C   0  0  0  0  0  0  0  0  0  0  0  0
  -15.4956   33.4645  -26.1542 C   0  0  0  0  0  0  0  0  0  0  0  0
  -15.6728   34.1130  -28.6137 O   0  0  0  0  0  0  0  0  0  0  0  0
  1  2  2  0
  2  3  1  0
  3  4  1  0
  2  5  1  0
  4  6  1  0
  4  7  2  0
  6  8  1  0
  8  9  2  0
  9 10  1  0
  9 11  1  0
 11 12  1  0
  6 13  2  0
 11 14  2  0
 13 14  1  0
 12 15  1  0
 12 16  1  0
 16 17  1  0
 14 18  1  0
 17 18  1  0
 17 19  1  0
M  END
