
     RDKit          3D

 13 14  0  0  0  0  0  0  0  0999 V2000
  -15.8083   32.7177  -28.8896 C   0  0  0  0  0  0  0  0  0  0  0  0
  -15.9633   33.9835  -28.7270 C   0  0  0  0  0  0  0  0  0  0  0  0
  -16.4678   34.2285  -27.5591 C   0  0  0  0  0  0  0  0  0  0  0  0
  -16.8233   35.6241  -27.0797 C   0  0  0  0  0  0  0  0  0  0  0  0
  -16.2448   31.9956  -27.8463 N   0  0  0  0  0  0  0  0  0  0  0  0
  -17.1311   35.5787  -25.6825 C   0  0  0  0  0  0  0  0  0  0  0  0
  -16.6885   33.0343  -26.9460 C   0  0  0  0  0  0  0  0  0  0  0  0
  -17.0984   33.0610  -25.6244 C   0  0  0  0  0  0  0  0  0  0  0  0
  -17.3396   34.3024  -24.9673 C   0  0  0  0  0  0  0  0  0  0  0  0
  -17.1017   31.8131  -24.8202 C   0  0  0  0  0  0  0  0  0  0  0  0
  -18.1319   31.7793  -23.8425 C   0  0  0  0  0  0  0  0  0  0  0  0
  -15.9054   31.6854  -24.1746 O   0  0  0  0  0  0  0  0  0  0  0  0
  -18.0781   30.5431  -22.9955 O   0  0  0  0  0  0  0  0  0  0  0  0
  1  2  1  0
  2  3  2  0
  3  4  1  0
  1  5  2  0
  4  6  2  0
  3  7  1  0
  5  7  1  0
  7  8  2  0
  6  9  1  0
  8  9  1  0
  8 10  1  0
 10 11  1  0
 10 12  1  0
 11 13  1  0
M  END
