
     RDKit          3D

 19 19  0  0  0  0  0  0  0  0999 V2000
  -14.5634   28.0068  -22.8279 O   0  0  0  0  0  0  0  0  0  0  0  0
  -15.5745   28.8804  -22.3954 C   0  0  0  0  0  0  0  0  0  0  0  0
  -16.6927   28.3417  -22.0607 O   0  0  0  0  0  0  0  0  0  0  0  0
  -15.4604   30.2294  -22.8014 C   0  0  0  0  0  0  0  0  0  0  0  0
  -14.7187   30.7985  -23.5901 O   0  0  0  0  0  0  0  0  0  0  0  0
  -16.9493   30.8005  -23.0283 C   0  0  0  0  0  0  0  0  0  0  0  0
  -17.0373   31.7480  -24.0519 N   0  0  0  0  0  0  0  0  0  0  0  0
  -17.9403   30.5133  -22.4477 O   0  0  0  0  0  0  0  0  0  0  0  0
  -18.2149   32.3608  -24.5393 C   0  0  0  0  0  0  0  0  0  0  0  0
  -18.1225   33.7659  -24.3959 C   0  0  0  0  0  0  0  0  0  0  0  0
  -18.2503   32.0359  -26.1153 C   0  0  0  0  0  0  0  0  0  0  0  0
  -17.5622   33.1121  -26.8979 C   0  0  0  0  0  0  0  0  0  0  0  0
  -16.4440   33.1713  -27.4625 C   0  0  0  0  0  0  0  0  0  0  0  0
  -18.3750   34.3124  -23.2846 O   0  0  0  0  0  0  0  0  0  0  0  0
  -18.2957   34.4438  -26.5773 C   0  0  0  0  0  0  0  0  0  0  0  0
  -15.7914   32.0581  -27.8587 O   0  0  0  0  0  0  0  0  0  0  0  0
  -16.0396   34.3855  -28.1886 C   0  0  0  0  0  0  0  0  0  0  0  0
  -18.2917   34.6958  -25.3415 N   0  0  0  0  0  0  0  0  0  0  0  0
  -17.9914   36.1440  -25.0488 C   0  0  0  0  0  0  0  0  0  0  0  0
  1  2  1  0
  2  3  2  0
  2  4  1  0
  4  5  1  0
  4  6  1  0
  6  7  1  0
  6  8  2  0
  7  9  1  0
  9 10  1  0
  9 11  1  0
 11 12  1  0
 12 13  2  3
 10 14  2  0
 12 15  1  0
 13 16  1  0
 13 17  1  0
 10 18  1  0
 15 18  1  0
 18 19  1  0
M  END
