
     RDKit          3D

 19 18  0  0  0  0  0  0  0  0999 V2000
  -15.9333   33.3737  -28.3999 O   0  0  0  0  0  0  0  0  0  0  0  0
  -16.6718   34.3270  -27.7445 C   0  0  0  0  0  0  0  0  0  0  0  0
  -17.5697   33.6280  -26.7082 C   0  0  0  0  0  0  0  0  0  0  0  0
  -16.8726   33.4648  -25.5711 N   0  0  0  0  0  0  0  0  0  0  0  0
  -17.4787   32.8238  -24.4652 C   0  0  0  0  0  0  0  0  0  0  0  0
  -16.6974   31.7181  -23.9518 C   0  0  0  0  0  0  0  0  0  0  0  0
  -18.5208   33.1729  -23.9189 O   0  0  0  0  0  0  0  0  0  0  0  0
  -17.3666   30.7183  -23.2493 C   0  0  0  0  0  0  0  0  0  0  0  0
  -15.6604   34.2405  -25.3161 C   0  0  0  0  0  0  0  0  0  0  0  0
  -15.7058   35.6268  -24.7699 C   0  0  0  0  0  0  0  0  0  0  0  0
  -16.8126   29.7643  -22.5357 N   0  0  0  0  0  0  0  0  0  0  0  0
  -18.6342   30.9914  -23.1919 O   0  0  0  0  0  0  0  0  0  0  0  0
  -16.4413   35.6595  -23.5478 C   0  0  0  0  0  0  0  0  0  0  0  0
  -16.7653   36.8459  -23.0349 N   0  0  0  0  0  0  0  0  0  0  0  0
  -15.4799   29.7073  -22.2885 C   0  0  0  0  0  0  0  0  0  0  0  0
  -16.8154   37.0260  -21.6259 O   0  0  0  0  0  0  0  0  0  0  0  0
  -14.7353   30.4193  -22.7680 O   0  0  0  0  0  0  0  0  0  0  0  0
  -15.1341   28.3471  -21.8820 O   0  0  0  0  0  0  0  0  0  0  0  0
  -14.3584   27.5303  -22.6687 O   0  0  0  0  0  0  0  0  0  0  0  0
  1  2  1  0
  2  3  1  0
  3  4  1  0
  4  5  1  0
  5  6  1  0
  5  7  2  0
  6  8  1  0
  4  9  1  0
  9 10  1  0
  8 11  1  0
  8 12  2  0
 10 13  1  0
 13 14  1  0
 11 15  1  0
 14 16  1  0
 15 17  2  0
 15 18  1  0
 18 19  1  0
M  END
