
     RDKit          3D

 19 19  0  0  0  0  0  0  0  0999 V2000
  -16.3898   37.6991  -22.6971 O   0  0  0  0  0  0  0  0  0  0  0  0
  -17.2647   36.8296  -21.9599 P   0  0  0  0  0  0  0  0  0  0  0  0
  -17.0211   36.5852  -20.5789 O   0  0  0  0  0  0  0  0  0  0  0  0
  -17.3031   35.5066  -22.7391 O   0  0  0  0  0  0  0  0  0  0  0  0
  -18.8313   37.2995  -22.0807 O   0  0  0  0  0  0  0  0  0  0  0  0
  -18.2955   34.6669  -23.2691 C   0  0  0  0  0  0  0  0  0  0  0  0
  -18.1276   34.4864  -24.6578 C   0  0  0  0  0  0  0  0  0  0  0  0
  -16.9365   34.8123  -25.1885 C   0  0  0  0  0  0  0  0  0  0  0  0
  -18.5128   32.9553  -24.4775 O   0  0  0  0  0  0  0  0  0  0  0  0
  -15.8164   34.2183  -24.7976 O   0  0  0  0  0  0  0  0  0  0  0  0
  -18.0936   32.2832  -23.5135 C   0  0  0  0  0  0  0  0  0  0  0  0
  -16.9496   34.8140  -26.7453 C   0  0  0  0  0  0  0  0  0  0  0  0
  -15.9072   35.4570  -27.2555 O   0  0  0  0  0  0  0  0  0  0  0  0
  -18.0560   30.8575  -23.3955 C   0  0  0  0  0  0  0  0  0  0  0  0
  -18.0990   33.2963  -22.5625 C   0  0  0  0  0  0  0  0  0  0  0  0
  -16.8260   30.4398  -22.8382 C   0  0  0  0  0  0  0  0  0  0  0  0
  -16.7033   29.2905  -22.0647 N   0  0  0  0  0  0  0  0  0  0  0  0
  -15.8048   31.2539  -22.9486 O   0  0  0  0  0  0  0  0  0  0  0  0
  -15.4032   28.7178  -21.8429 O   0  0  0  0  0  0  0  0  0  0  0  0
  1  2  2  0
  2  3  1  0
  2  4  1  0
  2  5  1  0
  4  6  1  0
  6  7  1  0
  7  8  1  0
  7  9  1  0
  8 10  1  0
  9 11  1  0
  8 12  1  0
 12 13  1  0
 11 14  1  0
  6 15  1  0
 11 15  2  0
 14 16  1  0
 16 17  1  0
 16 18  2  0
 17 19  1  0
M  END
