
     RDKit          3D

 19 19  0  0  0  0  0  0  0  0999 V2000
  -16.5264   36.7113  -20.8172 O   0  0  0  0  0  0  0  0  0  0  0  0
  -17.2741   36.7620  -21.9915 P   0  0  0  0  0  0  0  0  0  0  0  0
  -17.1661   35.4582  -22.6589 O   0  0  0  0  0  0  0  0  0  0  0  0
  -17.4416   35.0556  -24.0257 P   0  0  0  0  0  0  0  0  0  0  0  0
  -18.7942   37.2590  -21.8229 O   0  0  0  0  0  0  0  0  0  0  0  0
  -16.6874   37.9447  -22.7779 O   0  0  0  0  0  0  0  0  0  0  0  0
  -16.0206   34.6957  -24.4948 O   0  0  0  0  0  0  0  0  0  0  0  0
  -15.7364   33.6235  -25.2599 C   0  0  0  0  0  0  0  0  0  0  0  0
  -18.2555   33.7339  -24.0485 O   0  0  0  0  0  0  0  0  0  0  0  0
  -17.6295   32.4934  -23.9325 C   0  0  0  0  0  0  0  0  0  0  0  0
  -16.4632   32.4310  -24.8958 C   0  0  0  0  0  0  0  0  0  0  0  0
  -18.5675   31.3484  -24.0639 C   0  0  0  0  0  0  0  0  0  0  0  0
  -18.1860   36.0788  -24.7243 O   0  0  0  0  0  0  0  0  0  0  0  0
  -16.8482   31.7967  -26.1233 O   0  0  0  0  0  0  0  0  0  0  0  0
  -19.7724   31.6516  -24.0808 O   0  0  0  0  0  0  0  0  0  0  0  0
  -18.2284   30.4040  -22.9565 C   0  0  0  0  0  0  0  0  0  0  0  0
  -16.7341   30.2925  -22.7004 O   0  0  0  0  0  0  0  0  0  0  0  0
  -16.0409   29.1049  -22.2872 C   0  0  0  0  0  0  0  0  0  0  0  0
  -15.0243   28.9103  -22.6736 O   0  0  0  0  0  0  0  0  0  0  0  0
  1  2  1  0
  2  3  1  0
  3  4  1  0
  2  5  2  0
  2  6  1  0
  4  7  1  0
  7  8  1  0
  4  9  1  0
  9 10  1  0
  8 11  1  0
 10 11  1  0
 10 12  1  0
  4 13  2  0
 11 14  1  0
 12 15  1  0
 12 16  1  0
 16 17  1  0
 17 18  1  0
 18 19  2  0
M  END
