
     RDKit          3D

 19 20  0  0  0  0  0  0  0  0999 V2000
  -18.2926   30.0455  -22.6046 O   0  0  0  0  0  0  0  0  0  0  0  0
  -17.3348   30.7058  -22.9484 C   0  0  0  0  0  0  0  0  0  0  0  0
  -15.9973   30.4232  -22.8762 C   0  0  0  0  0  0  0  0  0  0  0  0
  -17.6952   31.9462  -23.6712 N   0  0  0  0  0  0  0  0  0  0  0  0
  -15.5910   29.2113  -22.1676 C   0  0  0  0  0  0  0  0  0  0  0  0
  -15.0266   31.2053  -23.4011 C   0  0  0  0  0  0  0  0  0  0  0  0
  -19.1096   32.2908  -23.8899 C   0  0  0  0  0  0  0  0  0  0  0  0
  -13.7586   30.8214  -23.2995 O   0  0  0  0  0  0  0  0  0  0  0  0
  -19.1399   33.1290  -25.1330 C   0  0  0  0  0  0  0  0  0  0  0  0
  -16.8162   32.7855  -24.1958 C   0  0  0  0  0  0  0  0  0  0  0  0
  -15.3508   32.4037  -24.1158 C   0  0  0  0  0  0  0  0  0  0  0  0
  -17.2503   34.0338  -24.9332 C   0  0  0  0  0  0  0  0  0  0  0  0
  -18.4365   34.2378  -25.1086 N   0  0  0  0  0  0  0  0  0  0  0  0
  -16.0914   34.8304  -25.3301 C   0  0  0  0  0  0  0  0  0  0  0  0
  -18.7495   35.4041  -25.8345 C   0  0  0  0  0  0  0  0  0  0  0  0
  -15.5316   35.6287  -24.4946 O   0  0  0  0  0  0  0  0  0  0  0  0
  -15.8120   34.8921  -26.7485 C   0  0  0  0  0  0  0  0  0  0  0  0
  -16.0786   33.7744  -27.5523 C   0  0  0  0  0  0  0  0  0  0  0  0
  -15.6378   33.8752  -28.8828 C   0  0  0  0  0  0  0  0  0  0  0  0
  1  2  2  0
  2  3  1  0
  2  4  1  0
  3  5  1  0
  3  6  2  0
  4  7  1  0
  6  8  1  0
  7  9  1  0
  4 10  1  0
  6 11  1  0
 10 11  2  0
 10 12  1  0
  9 13  1  0
 12 13  1  0
 12 14  2  3
 13 15  1  0
 14 16  1  0
 14 17  1  0
 17 18  1  0
 18 19  1  0
M  END
