
     RDKit          3D

 19 19  0  0  0  0  0  0  0  0999 V2000
  -16.3898   37.6991  -22.6971 O   0  0  0  0  0  0  0  0  0  0  0  0
  -17.2647   36.8296  -21.9599 P   0  0  0  0  0  0  0  0  0  0  0  0
  -18.6097   37.3624  -21.9255 O   0  0  0  0  0  0  0  0  0  0  0  0
  -17.4502   35.4442  -22.7352 O   0  0  0  0  0  0  0  0  0  0  0  0
  -17.0834   36.6406  -20.4085 O   0  0  0  0  0  0  0  0  0  0  0  0
  -16.9938   35.3369  -24.1265 C   0  0  0  0  0  0  0  0  0  0  0  0
  -16.8861   33.9729  -24.5749 C   0  0  0  0  0  0  0  0  0  0  0  0
  -17.9048   33.2124  -24.3205 O   0  0  0  0  0  0  0  0  0  0  0  0
  -16.5867   34.0720  -26.0618 C   0  0  0  0  0  0  0  0  0  0  0  0
  -15.7520   35.0084  -26.4205 O   0  0  0  0  0  0  0  0  0  0  0  0
  -17.8158   34.1116  -26.8520 C   0  0  0  0  0  0  0  0  0  0  0  0
  -17.7543   31.9236  -23.7463 C   0  0  0  0  0  0  0  0  0  0  0  0
  -16.6590   31.3364  -23.6097 C   0  0  0  0  0  0  0  0  0  0  0  0
  -18.9312   31.3099  -23.3538 C   0  0  0  0  0  0  0  0  0  0  0  0
  -17.7449   33.4185  -28.0483 O   0  0  0  0  0  0  0  0  0  0  0  0
  -16.3221   30.1972  -23.0025 C   0  0  0  0  0  0  0  0  0  0  0  0
  -14.9435   29.6724  -22.7510 O   0  0  0  0  0  0  0  0  0  0  0  0
  -17.3466   29.4124  -22.5213 C   0  0  0  0  0  0  0  0  0  0  0  0
  -18.6589   30.0111  -22.6814 C   0  0  0  0  0  0  0  0  0  0  0  0
  1  2  2  0
  2  3  1  0
  2  4  1  0
  2  5  1  0
  4  6  1  0
  6  7  1  0
  7  8  1  0
  7  9  1  0
  9 10  1  0
  9 11  1  0
  8 12  1  0
 12 13  1  0
 12 14  2  0
 11 15  1  0
 13 16  2  0
 16 17  1  0
 16 18  1  0
 14 19  1  0
 18 19  2  0
M  END
