
     RDKit          3D

 19 19  0  0  0  0  0  0  0  0999 V2000
  -16.3474   36.4961  -20.6363 O   0  0  0  0  0  0  0  0  0  0  0  0
  -17.7051   36.9438  -21.1925 P   0  0  0  0  0  0  0  0  0  0  0  0
  -17.7820   36.2280  -22.5043 O   0  0  0  0  0  0  0  0  0  0  0  0
  -18.8331   36.3525  -20.2709 O   0  0  0  0  0  0  0  0  0  0  0  0
  -17.3241   35.0623  -23.0663 C   0  0  0  0  0  0  0  0  0  0  0  0
  -17.8513   38.3874  -21.1484 O   0  0  0  0  0  0  0  0  0  0  0  0
  -17.4787   34.8959  -24.4021 C   0  0  0  0  0  0  0  0  0  0  0  0
  -16.2007   34.8569  -25.0976 C   0  0  0  0  0  0  0  0  0  0  0  0
  -18.2721   33.5876  -24.6039 O   0  0  0  0  0  0  0  0  0  0  0  0
  -16.3371   33.8988  -26.3147 C   0  0  0  0  0  0  0  0  0  0  0  0
  -15.0475   34.2919  -24.5979 O   0  0  0  0  0  0  0  0  0  0  0  0
  -17.5506   32.7690  -25.5581 C   0  0  0  0  0  0  0  0  0  0  0  0
  -16.8696   31.7339  -24.7513 C   0  0  0  0  0  0  0  0  0  0  0  0
  -17.5685   31.1344  -23.7240 N   0  0  0  0  0  0  0  0  0  0  0  0
  -16.7984   34.3105  -27.5646 C   0  0  0  0  0  0  0  0  0  0  0  0
  -17.0688   30.3448  -22.7347 C   0  0  0  0  0  0  0  0  0  0  0  0
  -15.6895   30.3160  -22.5929 C   0  0  0  0  0  0  0  0  0  0  0  0
  -15.9790   33.7270  -28.5243 O   0  0  0  0  0  0  0  0  0  0  0  0
  -15.2170   28.9238  -22.1707 O   0  0  0  0  0  0  0  0  0  0  0  0
  1  2  1  0
  2  3  1  0
  2  4  1  0
  3  5  1  0
  2  6  2  0
  5  7  1  0
  7  8  1  0
  7  9  1  0
  8 10  1  0
  8 11  1  0
  9 12  1  0
 10 12  1  0
 12 13  1  0
 13 14  1  0
 10 15  1  0
 14 16  1  0
 16 17  1  0
 15 18  1  0
 17 19  1  0
M  END
