
     RDKit          3D

 13 13  0  0  0  0  0  0  0  0999 V2000
  -14.6824   28.3033  -22.6998 O   0  0  0  0  0  0  0  0  0  0  0  0
  -15.6151   29.1821  -22.6283 C   0  0  0  0  0  0  0  0  0  0  0  0
  -16.8401   28.7630  -22.4029 N   0  0  0  0  0  0  0  0  0  0  0  0
  -15.3869   30.4902  -22.6749 N   0  0  0  0  0  0  0  0  0  0  0  0
  -14.8173   31.1066  -23.5799 C   0  0  0  0  0  0  0  0  0  0  0  0
  -15.8097   31.8598  -24.3532 C   0  0  0  0  0  0  0  0  0  0  0  0
  -17.1802   31.9069  -23.9640 C   0  0  0  0  0  0  0  0  0  0  0  0
  -15.3472   32.8994  -25.2637 C   0  0  0  0  0  0  0  0  0  0  0  0
  -16.2068   33.7380  -25.8691 C   0  0  0  0  0  0  0  0  0  0  0  0
  -15.8019   34.7537  -26.8670 C   0  0  0  0  0  0  0  0  0  0  0  0
  -18.1157   32.6816  -24.6266 C   0  0  0  0  0  0  0  0  0  0  0  0
  -17.5627   33.6330  -25.6856 C   0  0  0  0  0  0  0  0  0  0  0  0
  -15.9338   34.4899  -28.1771 O   0  0  0  0  0  0  0  0  0  0  0  0
  1  2  2  0
  2  3  1  0
  2  4  1  0
  4  5  1  0
  5  6  1  0
  6  7  1  0
  6  8  2  0
  8  9  1  0
  9 10  1  0
  7 11  2  0
  9 12  2  0
 11 12  1  0
 10 13  1  0
M  END
