
     RDKit          3D

 19 21  0  0  0  0  0  0  0  0999 V2000
  -14.6538   27.9379  -22.8542 O   0  0  0  0  0  0  0  0  0  0  0  0
  -15.5100   28.8910  -22.3432 C   0  0  0  0  0  0  0  0  0  0  0  0
  -16.6014   28.4621  -21.8747 O   0  0  0  0  0  0  0  0  0  0  0  0
  -15.3815   30.2546  -22.6122 C   0  0  0  0  0  0  0  0  0  0  0  0
  -16.7220   30.8906  -22.7635 N   0  0  0  0  0  0  0  0  0  0  0  0
  -17.9296   30.5792  -22.2351 C   0  0  0  0  0  0  0  0  0  0  0  0
  -18.9359   31.0667  -23.2313 C   0  0  0  0  0  0  0  0  0  0  0  0
  -18.2272   31.4174  -24.4878 C   0  0  0  0  0  0  0  0  0  0  0  0
  -16.8206   32.0505  -23.6501 C   0  0  0  0  0  0  0  0  0  0  0  0
  -18.7725   32.4797  -25.3505 C   0  0  0  0  0  0  0  0  0  0  0  0
  -15.6657   32.1555  -24.6240 C   0  0  0  0  0  0  0  0  0  0  0  0
  -15.8940   33.4140  -25.4642 C   0  0  0  0  0  0  0  0  0  0  0  0
  -16.7458   33.3828  -26.5688 C   0  0  0  0  0  0  0  0  0  0  0  0
  -15.3901   34.6466  -25.0264 C   0  0  0  0  0  0  0  0  0  0  0  0
  -18.1570   33.1406  -26.3897 C   0  0  0  0  0  0  0  0  0  0  0  0
  -16.1947   32.5651  -27.6164 C   0  0  0  0  0  0  0  0  0  0  0  0
  -14.5480   34.8604  -23.9371 O   0  0  0  0  0  0  0  0  0  0  0  0
  -16.4915   34.8676  -27.0846 C   0  0  0  0  0  0  0  0  0  0  0  0
  -15.7282   35.5340  -26.0395 C   0  0  0  0  0  0  0  0  0  0  0  0
  1  2  2  0
  2  3  1  0
  2  4  1  0
  4  5  1  0
  5  6  1  0
  6  7  1  0
  7  8  1  0
  5  9  1  0
  8  9  1  0
  8 10  1  0
  9 11  1  0
 11 12  1  0
 12 13  1  0
 12 14  2  0
 10 15  2  0
 13 15  1  0
 13 16  1  0
 14 17  1  0
 13 18  1  0
 14 19  1  0
 18 19  1  0
M  END
