
     RDKit          3D

 19 19  0  0  0  0  0  0  0  0999 V2000
  -18.2926   30.0455  -22.6046 O   0  0  0  0  0  0  0  0  0  0  0  0
  -17.3348   30.7058  -22.9484 C   0  0  0  0  0  0  0  0  0  0  0  0
  -15.9973   30.4232  -22.8762 N   0  0  0  0  0  0  0  0  0  0  0  0
  -17.6594   32.1156  -23.4700 C   0  0  0  0  0  0  0  0  0  0  0  0
  -15.0420   31.2296  -23.4128 C   0  0  0  0  0  0  0  0  0  0  0  0
  -15.6434   29.2192  -22.0393 C   0  0  0  0  0  0  0  0  0  0  0  0
  -16.7197   32.8240  -24.1659 C   0  0  0  0  0  0  0  0  0  0  0  0
  -16.9877   34.0759  -24.7825 N   0  0  0  0  0  0  0  0  0  0  0  0
  -15.4269   32.2663  -24.0332 N   0  0  0  0  0  0  0  0  0  0  0  0
  -19.0528   32.4978  -23.2988 N   0  0  0  0  0  0  0  0  0  0  0  0
  -17.6515   34.0686  -25.9394 C   0  0  0  0  0  0  0  0  0  0  0  0
  -16.8583   34.4627  -27.0541 C   0  0  0  0  0  0  0  0  0  0  0  0
  -16.1571   35.5300  -27.1332 O   0  0  0  0  0  0  0  0  0  0  0  0
  -16.4009   33.2210  -27.7179 C   0  0  0  0  0  0  0  0  0  0  0  0
  -15.4656   33.3242  -28.7747 C   0  0  0  0  0  0  0  0  0  0  0  0
  -17.0279   35.0371  -23.7661 C   0  0  0  0  0  0  0  0  0  0  0  0
  -18.0440   35.5430  -23.2456 O   0  0  0  0  0  0  0  0  0  0  0  0
  -14.9708   32.1267  -29.2570 C   0  0  0  0  0  0  0  0  0  0  0  0
  -15.7767   35.3921  -23.3985 O   0  0  0  0  0  0  0  0  0  0  0  0
  1  2  2  0
  2  3  1  0
  2  4  1  0
  3  5  1  0
  3  6  1  0
  4  7  2  0
  7  8  1  0
  5  9  2  0
  7  9  1  0
  4 10  1  0
  8 11  1  0
 11 12  1  0
 12 13  1  0
 12 14  2  3
 14 15  1  0
  8 16  1  0
 16 17  1  0
 15 18  2  0
 16 19  2  0
M  END
