
     RDKit          3D

 19 18  0  0  0  0  0  0  0  0999 V2000
  -16.7932   37.5764  -21.4740 O   0  0  0  0  0  0  0  0  0  0  0  0
  -17.4668   36.3287  -21.5212 P   0  0  0  0  0  0  0  0  0  0  0  0
  -17.0679   35.5567  -22.7505 O   0  0  0  0  0  0  0  0  0  0  0  0
  -17.4997   35.3717  -24.0784 P   0  0  0  0  0  0  0  0  0  0  0  0
  -16.3058   35.6716  -24.8299 O   0  0  0  0  0  0  0  0  0  0  0  0
  -19.0007   36.8417  -21.6847 O   0  0  0  0  0  0  0  0  0  0  0  0
  -17.2679   35.7200  -20.1587 O   0  0  0  0  0  0  0  0  0  0  0  0
  -18.6894   36.0300  -24.4671 O   0  0  0  0  0  0  0  0  0  0  0  0
  -17.6385   33.8238  -24.3344 O   0  0  0  0  0  0  0  0  0  0  0  0
  -16.9667   32.9820  -25.1432 C   0  0  0  0  0  0  0  0  0  0  0  0
  -17.4457   32.8991  -26.4361 C   0  0  0  0  0  0  0  0  0  0  0  0
  -18.7322   33.3548  -26.6232 O   0  0  0  0  0  0  0  0  0  0  0  0
  -16.6650   33.9191  -27.3450 C   0  0  0  0  0  0  0  0  0  0  0  0
  -16.6699   35.0887  -27.2719 O   0  0  0  0  0  0  0  0  0  0  0  0
  -16.7543   31.7091  -24.4256 C   0  0  0  0  0  0  0  0  0  0  0  0
  -15.9003   33.2725  -28.2134 O   0  0  0  0  0  0  0  0  0  0  0  0
  -15.5647   31.6528  -23.6616 C   0  0  0  0  0  0  0  0  0  0  0  0
  -18.0696   31.3096  -23.7247 C   0  0  0  0  0  0  0  0  0  0  0  0
  -15.1602   30.3401  -23.2249 O   0  0  0  0  0  0  0  0  0  0  0  0
  1  2  2  0
  2  3  1  0
  3  4  1  0
  4  5  2  0
  2  6  1  0
  2  7  1  0
  4  8  1  0
  4  9  1  0
  9 10  1  0
 10 11  1  0
 11 12  1  0
 11 13  1  0
 13 14  2  0
 10 15  1  0
 13 16  1  0
 15 17  1  0
 15 18  1  0
 17 19  1  0
M  END
