
     RDKit          3D

 19 19  0  0  0  0  0  0  0  0999 V2000
  -16.3898   37.6991  -22.6971 O   0  0  0  0  0  0  0  0  0  0  0  0
  -17.2647   36.8296  -21.9599 P   0  0  0  0  0  0  0  0  0  0  0  0
  -18.6097   37.3624  -21.9255 O   0  0  0  0  0  0  0  0  0  0  0  0
  -17.4502   35.4442  -22.7352 O   0  0  0  0  0  0  0  0  0  0  0  0
  -17.0834   36.6406  -20.4085 O   0  0  0  0  0  0  0  0  0  0  0  0
  -17.5804   35.2952  -24.1117 C   0  0  0  0  0  0  0  0  0  0  0  0
  -17.1958   33.9379  -24.5146 C   0  0  0  0  0  0  0  0  0  0  0  0
  -18.0458   33.0242  -24.2365 O   0  0  0  0  0  0  0  0  0  0  0  0
  -16.4559   33.9565  -25.7958 C   0  0  0  0  0  0  0  0  0  0  0  0
  -17.7912   31.6829  -24.4331 C   0  0  0  0  0  0  0  0  0  0  0  0
  -16.6832   31.2599  -23.7154 O   0  0  0  0  0  0  0  0  0  0  0  0
  -17.3189   34.3499  -26.8479 C   0  0  0  0  0  0  0  0  0  0  0  0
  -16.7697   33.9859  -28.1266 O   0  0  0  0  0  0  0  0  0  0  0  0
  -18.9045   30.9674  -23.7544 C   0  0  0  0  0  0  0  0  0  0  0  0
  -15.8661   32.7638  -26.2152 O   0  0  0  0  0  0  0  0  0  0  0  0
  -16.6592   30.2164  -22.9168 C   0  0  0  0  0  0  0  0  0  0  0  0
  -15.6073   29.6079  -22.3587 C   0  0  0  0  0  0  0  0  0  0  0  0
  -15.5680   28.2993  -22.0384 O   0  0  0  0  0  0  0  0  0  0  0  0
  -18.1223   30.1217  -22.7006 N   0  0  0  0  0  0  0  0  0  0  0  0
  1  2  2  0
  2  3  1  0
  2  4  1  0
  2  5  1  0
  4  6  1  0
  6  7  1  0
  7  8  1  0
  7  9  1  0
  8 10  1  0
 10 11  1  0
  9 12  1  0
 12 13  1  0
 10 14  1  0
  9 15  1  0
 11 16  1  0
 16 17  1  0
 17 18  1  0
 14 19  1  0
 16 19  2  0
M  END
