
     RDKit          3D

 19 19  0  0  0  0  0  0  0  0999 V2000
  -14.5984   28.1292  -22.9236 O   0  0  0  0  0  0  0  0  0  0  0  0
  -15.7138   28.7083  -22.3715 C   0  0  0  0  0  0  0  0  0  0  0  0
  -16.6735   28.0483  -22.0220 O   0  0  0  0  0  0  0  0  0  0  0  0
  -15.7815   30.1630  -22.3531 C   0  0  0  0  0  0  0  0  0  0  0  0
  -17.0211   30.7141  -22.6673 N   0  0  0  0  0  0  0  0  0  0  0  0
  -16.9947   31.6109  -23.8374 C   0  0  0  0  0  0  0  0  0  0  0  0
  -18.2525   32.1364  -24.2566 C   0  0  0  0  0  0  0  0  0  0  0  0
  -15.8387   31.8898  -24.4197 O   0  0  0  0  0  0  0  0  0  0  0  0
  -18.8583   32.7701  -23.4112 O   0  0  0  0  0  0  0  0  0  0  0  0
  -18.0042   33.2195  -25.5301 C   0  0  0  0  0  0  0  0  0  0  0  0
  -18.9777   33.3603  -26.3293 C   0  0  0  0  0  0  0  0  0  0  0  0
  -17.5830   34.4501  -24.7776 O   0  0  0  0  0  0  0  0  0  0  0  0
  -18.5602   33.6345  -27.6390 O   0  0  0  0  0  0  0  0  0  0  0  0
  -16.2928   35.0580  -25.2116 C   0  0  0  0  0  0  0  0  0  0  0  0
  -15.5395   35.4338  -24.3478 O   0  0  0  0  0  0  0  0  0  0  0  0
  -16.1059   35.0900  -26.6717 C   0  0  0  0  0  0  0  0  0  0  0  0
  -19.9356   32.2133  -26.4911 C   0  0  0  0  0  0  0  0  0  0  0  0
  -15.9625   33.8857  -27.4263 N   0  0  0  0  0  0  0  0  0  0  0  0
  -17.0733   33.7157  -28.3971 C   0  0  0  0  0  0  0  0  0  0  0  0
  1  2  2  0
  2  3  1  0
  2  4  1  0
  4  5  1  0
  5  6  1  0
  6  7  1  0
  6  8  2  0
  7  9  1  0
  7 10  1  0
 10 11  1  0
 10 12  1  0
 11 13  1  0
 12 14  1  0
 14 15  2  0
 14 16  1  0
 11 17  1  0
 16 18  1  0
 13 19  1  0
 18 19  1  0
M  END
