
     RDKit          3D

 13 14  0  0  0  0  0  0  0  0999 V2000
  -15.8083   32.7177  -28.8896 C   0  0  0  0  0  0  0  0  0  0  0  0
  -15.9633   33.9835  -28.7270 C   0  0  0  0  0  0  0  0  0  0  0  0
  -16.3247   31.7979  -27.8927 C   0  0  0  0  0  0  0  0  0  0  0  0
  -16.9183   32.4018  -26.8421 C   0  0  0  0  0  0  0  0  0  0  0  0
  -16.3728   34.4806  -27.6485 C   0  0  0  0  0  0  0  0  0  0  0  0
  -17.5658   31.5512  -25.8109 C   0  0  0  0  0  0  0  0  0  0  0  0
  -18.9148   32.0686  -25.5521 C   0  0  0  0  0  0  0  0  0  0  0  0
  -17.0019   33.7585  -26.7271 C   0  0  0  0  0  0  0  0  0  0  0  0
  -16.9265   31.7135  -24.4800 C   0  0  0  0  0  0  0  0  0  0  0  0
  -19.4379   31.4720  -24.3210 C   0  0  0  0  0  0  0  0  0  0  0  0
  -18.1452   31.4051  -23.4591 C   0  0  0  0  0  0  0  0  0  0  0  0
  -15.7244   31.1678  -24.1159 N   0  0  0  0  0  0  0  0  0  0  0  0
  -18.0179   31.0328  -22.3224 O   0  0  0  0  0  0  0  0  0  0  0  0
  1  2  1  0
  1  3  2  0
  3  4  1  0
  2  5  2  0
  4  6  1  0
  6  7  1  0
  4  8  2  0
  5  8  1  0
  6  9  1  0
  7 10  1  0
  9 11  1  0
 10 11  1  0
  9 12  1  0
 11 13  2  0
M  END
