
     RDKit          3D

 19 19  0  0  0  0  0  0  0  0999 V2000
  -16.3474   36.4961  -20.6363 O   0  0  0  0  0  0  0  0  0  0  0  0
  -17.7051   36.9438  -21.1925 P   0  0  0  0  0  0  0  0  0  0  0  0
  -17.7820   36.2280  -22.5043 O   0  0  0  0  0  0  0  0  0  0  0  0
  -17.7881   38.4217  -21.4082 O   0  0  0  0  0  0  0  0  0  0  0  0
  -18.7652   36.4330  -20.2396 O   0  0  0  0  0  0  0  0  0  0  0  0
  -16.9172   36.1239  -23.6663 C   0  0  0  0  0  0  0  0  0  0  0  0
  -17.3950   35.4479  -24.7853 C   0  0  0  0  0  0  0  0  0  0  0  0
  -16.4297   34.6880  -25.4591 C   0  0  0  0  0  0  0  0  0  0  0  0
  -18.5135   34.4983  -24.3762 O   0  0  0  0  0  0  0  0  0  0  0  0
  -16.2851   35.1893  -26.8463 O   0  0  0  0  0  0  0  0  0  0  0  0
  -17.1193   33.3391  -25.6599 C   0  0  0  0  0  0  0  0  0  0  0  0
  -18.1780   33.2506  -24.8188 C   0  0  0  0  0  0  0  0  0  0  0  0
  -16.0819   32.3455  -25.5552 O   0  0  0  0  0  0  0  0  0  0  0  0
  -17.7446   32.4871  -23.5558 N   0  0  0  0  0  0  0  0  0  0  0  0
  -17.9917   31.2506  -23.3105 C   0  0  0  0  0  0  0  0  0  0  0  0
  -18.9223   30.5769  -23.7800 O   0  0  0  0  0  0  0  0  0  0  0  0
  -17.0193   30.5870  -22.4498 N   0  0  0  0  0  0  0  0  0  0  0  0
  -16.4707   29.5976  -22.6253 C   0  0  0  0  0  0  0  0  0  0  0  0
  -14.9967   29.6008  -22.6212 O   0  0  0  0  0  0  0  0  0  0  0  0
  1  2  1  0
  2  3  1  0
  2  4  2  0
  2  5  1  0
  3  6  1  0
  6  7  1  0
  7  8  1  0
  7  9  1  0
  8 10  1  0
  8 11  1  0
  9 12  1  0
 11 12  1  0
 11 13  1  0
 12 14  1  0
 14 15  1  0
 15 16  2  0
 15 17  1  0
 17 18  1  0
 18 19  1  0
M  END
