
     RDKit          3D

 20 20  0  0  0  0  0  0  0  0999 V2000
  -16.3124   34.7008  -27.8652 C   0  0  0  0  0  0  0  0  0  0  0  0
  -16.4306   35.2041  -26.6408 C   0  0  0  0  0  0  0  0  0  0  0  0
  -16.5138   33.4839  -27.9147 C   0  0  0  0  0  0  0  0  0  0  0  0
  -16.8962   34.5142  -25.5282 C   0  0  0  0  0  0  0  0  0  0  0  0
  -17.0463   35.1963  -24.2208 C   0  0  0  0  0  0  0  0  0  0  0  0
  -17.2189   33.2043  -25.6699 C   0  0  0  0  0  0  0  0  0  0  0  0
  -16.2519   36.0762  -23.8482 O   0  0  0  0  0  0  0  0  0  0  0  0
  -18.0818   34.8301  -23.5060 N   0  0  0  0  0  0  0  0  0  0  0  0
  -16.9430   32.6065  -26.9413 C   0  0  0  0  0  0  0  0  0  0  0  0
  -18.3752   35.3901  -22.1531 C   0  0  0  0  0  0  0  0  0  0  0  0
  -19.5146   35.7886  -21.9822 C   0  0  0  0  0  0  0  0  0  0  0  0
  -20.5120   35.1815  -22.4996 O   0  0  0  0  0  0  0  0  0  0  0  0
  -19.7423   36.8596  -21.2138 O   0  0  0  0  0  0  0  0  0  0  0  0
  -17.7475   32.3112  -24.6546 N   0  0  0  0  0  0  0  0  0  0  0  0
  -16.8943   31.6332  -23.9266 C   0  0  0  0  0  0  0  0  0  0  0  0
  -15.5583   31.7084  -23.9291 O   0  0  0  0  0  0  0  0  0  0  0  0
  -17.5595   30.6598  -22.9875 C   0  0  0  0  0  0  0  0  0  0  0  0
  -16.7140   29.7958  -22.3455 N   0  0  0  0  0  0  0  0  0  0  0  0
  -18.5743   31.1726  -22.2302 O   0  0  0  0  0  0  0  0  0  0  0  0
  -15.3401   29.7413  -22.3501 O   0  0  0  0  0  0  0  0  0  0  0  0
  1  2  1  0
  1  3  2  0
  2  4  2  0
  4  5  1  0
  4  6  1  0
  5  7  2  0
  5  8  1  0
  3  9  1  0
  6  9  2  0
  8 10  1  0
 10 11  1  0
 11 12  2  0
 11 13  1  0
  6 14  1  0
 14 15  1  0
 15 16  2  0
 15 17  1  0
 17 18  1  0
 17 19  2  0
 18 20  1  0
M  END
