
     RDKit          3D

 20 21  0  0  0  0  0  0  0  0999 V2000
  -17.5932   30.1573  -22.6492 N   0  0  0  0  0  0  0  0  0  0  0  0
  -16.3211   30.0927  -22.7467 C   0  0  0  0  0  0  0  0  0  0  0  0
  -15.7274   31.1384  -23.4350 N   0  0  0  0  0  0  0  0  0  0  0  0
  -15.6388   29.1529  -21.9796 N   0  0  0  0  0  0  0  0  0  0  0  0
  -16.3118   31.9980  -24.1685 C   0  0  0  0  0  0  0  0  0  0  0  0
  -18.3278   31.0740  -23.3815 C   0  0  0  0  0  0  0  0  0  0  0  0
  -17.6593   31.9731  -24.1552 N   0  0  0  0  0  0  0  0  0  0  0  0
  -15.6756   32.8040  -24.8696 O   0  0  0  0  0  0  0  0  0  0  0  0
  -19.5767   30.9541  -23.2930 O   0  0  0  0  0  0  0  0  0  0  0  0
  -18.5579   32.9601  -24.8560 C   0  0  0  0  0  0  0  0  0  0  0  0
  -18.3168   32.9409  -26.3259 C   0  0  0  0  0  0  0  0  0  0  0  0
  -18.7236   34.1357  -24.2722 C   0  0  0  0  0  0  0  0  0  0  0  0
  -18.5495   31.8355  -27.0433 O   0  0  0  0  0  0  0  0  0  0  0  0
  -18.9194   34.4249  -22.9720 O   0  0  0  0  0  0  0  0  0  0  0  0
  -17.9600   34.0595  -26.9900 N   0  0  0  0  0  0  0  0  0  0  0  0
  -17.9560   35.2454  -26.1856 C   0  0  0  0  0  0  0  0  0  0  0  0
  -18.2271   35.3274  -24.9238 N   0  0  0  0  0  0  0  0  0  0  0  0
  -17.5307   33.9988  -28.3349 C   0  0  0  0  0  0  0  0  0  0  0  0
  -18.2085   36.6687  -24.2771 C   0  0  0  0  0  0  0  0  0  0  0  0
  -15.9702   33.8683  -28.3723 C   0  0  0  0  0  0  0  0  0  0  0  0
  1  2  1  0
  2  3  2  0
  2  4  1  0
  3  5  1  0
  1  6  1  0
  5  7  1  0
  6  7  1  0
  5  8  2  0
  6  9  2  0
  7 10  1  0
 10 11  1  0
 10 12  1  0
 11 13  2  0
 12 14  2  0
 11 15  1  0
 15 16  1  0
 12 17  1  0
 16 17  1  0
 15 18  1  0
 17 19  1  0
 18 20  1  0
M  END
