
     RDKit          3D

 13 14  0  0  0  0  0  0  0  0999 V2000
  -17.5932   30.1573  -22.6492 N   0  0  0  0  0  0  0  0  0  0  0  0
  -16.3211   30.0927  -22.7467 C   0  0  0  0  0  0  0  0  0  0  0  0
  -15.7274   31.1384  -23.4350 N   0  0  0  0  0  0  0  0  0  0  0  0
  -15.6388   29.1529  -21.9796 N   0  0  0  0  0  0  0  0  0  0  0  0
  -16.3118   31.9980  -24.1685 C   0  0  0  0  0  0  0  0  0  0  0  0
  -17.7126   31.9910  -24.1359 C   0  0  0  0  0  0  0  0  0  0  0  0
  -15.7198   33.0808  -24.8551 N   0  0  0  0  0  0  0  0  0  0  0  0
  -18.3132   31.0902  -23.3435 C   0  0  0  0  0  0  0  0  0  0  0  0
  -18.6274   32.9179  -24.8358 C   0  0  0  0  0  0  0  0  0  0  0  0
  -16.5553   33.8698  -25.6437 C   0  0  0  0  0  0  0  0  0  0  0  0
  -15.8210   34.9475  -26.3127 N   0  0  0  0  0  0  0  0  0  0  0  0
  -15.8884   34.7414  -27.7040 C   0  0  0  0  0  0  0  0  0  0  0  0
  -17.9252   33.8560  -25.6087 C   0  0  0  0  0  0  0  0  0  0  0  0
  1  2  1  0
  2  3  2  0
  2  4  1  0
  3  5  1  0
  5  6  2  0
  5  7  1  0
  1  8  2  0
  6  8  1  0
  6  9  1  0
  7 10  1  0
 10 11  1  0
 11 12  1  0
  9 13  2  0
 10 13  2  0
M  END
