
     RDKit          3D

 20 20  0  0  0  0  0  0  0  0999 V2000
  -16.3124   34.7008  -27.8652 C   0  0  0  0  0  0  0  0  0  0  0  0
  -16.4306   35.2041  -26.6408 C   0  0  0  0  0  0  0  0  0  0  0  0
  -16.5138   33.4839  -27.9147 C   0  0  0  0  0  0  0  0  0  0  0  0
  -16.8962   34.5142  -25.5282 C   0  0  0  0  0  0  0  0  0  0  0  0
  -17.1390   33.2203  -25.6214 C   0  0  0  0  0  0  0  0  0  0  0  0
  -16.9837   35.1338  -24.2009 C   0  0  0  0  0  0  0  0  0  0  0  0
  -16.9843   32.6014  -26.9397 C   0  0  0  0  0  0  0  0  0  0  0  0
  -17.6575   32.3444  -24.4855 C   0  0  0  0  0  0  0  0  0  0  0  0
  -17.7586   34.6140  -23.2644 O   0  0  0  0  0  0  0  0  0  0  0  0
  -18.8723   32.3434  -24.2287 O   0  0  0  0  0  0  0  0  0  0  0  0
  -16.7965   31.3171  -24.1662 N   0  0  0  0  0  0  0  0  0  0  0  0
  -18.7158   35.5428  -22.5298 C   0  0  0  0  0  0  0  0  0  0  0  0
  -18.1629   36.4992  -21.7823 C   0  0  0  0  0  0  0  0  0  0  0  0
  -17.0385   30.6343  -22.9917 C   0  0  0  0  0  0  0  0  0  0  0  0
  -16.2459   36.0858  -23.9890 O   0  0  0  0  0  0  0  0  0  0  0  0
  -18.2221   30.5248  -22.5539 O   0  0  0  0  0  0  0  0  0  0  0  0
  -15.9368   29.8666  -22.4830 C   0  0  0  0  0  0  0  0  0  0  0  0
  -18.6924   36.8798  -20.5513 O   0  0  0  0  0  0  0  0  0  0  0  0
  -14.7932   30.2425  -22.7066 O   0  0  0  0  0  0  0  0  0  0  0  0
  -16.1819   28.8202  -21.7162 O   0  0  0  0  0  0  0  0  0  0  0  0
  1  2  1  0
  1  3  2  0
  2  4  2  0
  4  5  1  0
  4  6  1  0
  3  7  1  0
  5  7  2  0
  5  8  1  0
  6  9  1  0
  8 10  2  0
  8 11  1  0
  9 12  1  0
 12 13  1  0
 11 14  1  0
  6 15  2  0
 14 16  2  0
 14 17  1  0
 13 18  1  0
 17 19  2  0
 17 20  1  0
M  END
