
     RDKit          3D

 13 14  0  0  0  0  0  0  0  0999 V2000
  -17.5932   30.1573  -22.6492 N   0  0  0  0  0  0  0  0  0  0  0  0
  -16.3211   30.0927  -22.7467 C   0  0  0  0  0  0  0  0  0  0  0  0
  -15.7274   31.1384  -23.4350 N   0  0  0  0  0  0  0  0  0  0  0  0
  -15.6388   29.1529  -21.9796 N   0  0  0  0  0  0  0  0  0  0  0  0
  -16.3118   31.9980  -24.1685 C   0  0  0  0  0  0  0  0  0  0  0  0
  -17.7126   31.9910  -24.1359 C   0  0  0  0  0  0  0  0  0  0  0  0
  -15.7198   33.0808  -24.8551 N   0  0  0  0  0  0  0  0  0  0  0  0
  -18.3132   31.0902  -23.3435 C   0  0  0  0  0  0  0  0  0  0  0  0
  -16.4521   33.9993  -25.5120 C   0  0  0  0  0  0  0  0  0  0  0  0
  -15.9047   34.9958  -25.9807 O   0  0  0  0  0  0  0  0  0  0  0  0
  -18.4999   32.7191  -25.0119 C   0  0  0  0  0  0  0  0  0  0  0  0
  -17.8751   33.7914  -25.6630 C   0  0  0  0  0  0  0  0  0  0  0  0
  -18.6653   34.8646  -26.6079 C   0  0  0  0  0  0  0  0  0  0  0  0
  1  2  1  0
  2  3  2  0
  2  4  1  0
  3  5  1  0
  5  6  2  0
  5  7  1  0
  1  8  2  0
  6  8  1  0
  7  9  1  0
  9 10  2  0
  6 11  1  0
  9 12  1  0
 11 12  2  0
 12 13  1  0
M  END
