
     RDKit          3D

 20 20  0  0  0  0  0  0  0  0999 V2000
  -15.9333   33.3737  -28.3999 O   0  0  0  0  0  0  0  0  0  0  0  0
  -16.7726   33.1245  -27.5037 C   0  0  0  0  0  0  0  0  0  0  0  0
  -17.0463   34.2162  -26.5141 C   0  0  0  0  0  0  0  0  0  0  0  0
  -16.8573   33.8974  -25.2097 C   0  0  0  0  0  0  0  0  0  0  0  0
  -17.8676   33.2726  -24.5441 N   0  0  0  0  0  0  0  0  0  0  0  0
  -19.0285   33.8769  -24.2032 C   0  0  0  0  0  0  0  0  0  0  0  0
  -17.9063   31.8473  -24.5422 C   0  0  0  0  0  0  0  0  0  0  0  0
  -16.5188   35.1676  -24.4802 C   0  0  0  0  0  0  0  0  0  0  0  0
  -18.8604   34.7526  -23.1659 O   0  0  0  0  0  0  0  0  0  0  0  0
  -16.2712   35.4172  -26.8925 O   0  0  0  0  0  0  0  0  0  0  0  0
  -16.9986   31.2235  -23.6589 C   0  0  0  0  0  0  0  0  0  0  0  0
  -15.4589   35.4500  -24.0572 O   0  0  0  0  0  0  0  0  0  0  0  0
  -20.0828   33.6617  -24.7639 O   0  0  0  0  0  0  0  0  0  0  0  0
  -17.4232   36.2520  -24.5221 O   0  0  0  0  0  0  0  0  0  0  0  0
  -15.6829   31.3811  -23.6990 C   0  0  0  0  0  0  0  0  0  0  0  0
  -17.3914   30.2030  -22.7272 C   0  0  0  0  0  0  0  0  0  0  0  0
  -15.0708   32.3610  -24.6184 O   0  0  0  0  0  0  0  0  0  0  0  0
  -16.5012   29.4913  -21.9623 C   0  0  0  0  0  0  0  0  0  0  0  0
  -14.7012   30.7536  -23.0268 C   0  0  0  0  0  0  0  0  0  0  0  0
  -15.1335   29.6258  -22.1469 C   0  0  0  0  0  0  0  0  0  0  0  0
  1  2  1  0
  2  3  1  0
  3  4  1  0
  4  5  1  0
  5  6  1  0
  5  7  1  0
  4  8  1  0
  6  9  1  0
  3 10  1  0
  7 11  1  0
  8 12  2  0
  6 13  2  0
  8 14  1  0
 11 15  2  0
 11 16  1  0
 15 17  1  0
 16 18  2  0
 15 19  1  0
 18 20  1  0
 19 20  2  0
M  END
