
     RDKit          3D

 20 21  0  0  0  0  0  0  0  0999 V2000
  -15.9957   34.1586  -28.5841 N   0  0  0  0  0  0  0  0  0  0  0  0
  -16.6213   33.5872  -27.7403 C   0  0  0  0  0  0  0  0  0  0  0  0
  -17.0769   34.3671  -26.6256 N   0  0  0  0  0  0  0  0  0  0  0  0
  -16.5915   32.4186  -27.5662 N   0  0  0  0  0  0  0  0  0  0  0  0
  -17.6736   33.8250  -25.5870 C   0  0  0  0  0  0  0  0  0  0  0  0
  -18.2937   34.6631  -24.5667 C   0  0  0  0  0  0  0  0  0  0  0  0
  -17.4565   35.5886  -24.0286 C   0  0  0  0  0  0  0  0  0  0  0  0
  -18.9392   33.7177  -23.5360 C   0  0  0  0  0  0  0  0  0  0  0  0
  -18.1539   32.5230  -23.1902 N   0  0  0  0  0  0  0  0  0  0  0  0
  -17.8834   36.8441  -23.7465 O   0  0  0  0  0  0  0  0  0  0  0  0
  -16.5740   33.0170  -24.9081 C   0  0  0  0  0  0  0  0  0  0  0  0
  -17.2338   32.0740  -23.8086 C   0  0  0  0  0  0  0  0  0  0  0  0
  -16.2266   35.6678  -24.3273 O   0  0  0  0  0  0  0  0  0  0  0  0
  -18.5281   31.9499  -21.9619 C   0  0  0  0  0  0  0  0  0  0  0  0
  -16.3321   31.1022  -23.4252 C   0  0  0  0  0  0  0  0  0  0  0  0
  -15.0044   30.9684  -23.8546 O   0  0  0  0  0  0  0  0  0  0  0  0
  -19.7299   32.2299  -21.3673 O   0  0  0  0  0  0  0  0  0  0  0  0
  -16.7256   30.3734  -22.3007 C   0  0  0  0  0  0  0  0  0  0  0  0
  -17.8801   30.7455  -21.6746 N   0  0  0  0  0  0  0  0  0  0  0  0
  -15.9932   29.2771  -21.8812 C   0  0  0  0  0  0  0  0  0  0  0  0
  1  2  1  0
  2  3  1  0
  2  4  2  0
  3  5  1  0
  5  6  1  0
  6  7  1  0
  6  8  1  0
  8  9  1  0
  7 10  1  0
  5 11  1  0
  9 12  1  0
 11 12  1  0
  7 13  2  0
  9 14  1  0
 12 15  2  0
 15 16  1  0
 14 17  2  0
 15 18  1  0
 14 19  1  0
 18 19  2  0
 18 20  1  0
M  END
