
     RDKit          3D

 20 21  0  0  0  0  0  0  0  0999 V2000
  -18.9141   30.8564  -22.8484 O   0  0  0  0  0  0  0  0  0  0  0  0
  -17.7244   31.2654  -23.2216 C   0  0  0  0  0  0  0  0  0  0  0  0
  -17.7593   32.4159  -23.9942 N   0  0  0  0  0  0  0  0  0  0  0  0
  -16.5537   32.9211  -24.5809 C   0  0  0  0  0  0  0  0  0  0  0  0
  -15.5092   32.1311  -24.5579 N   0  0  0  0  0  0  0  0  0  0  0  0
  -16.5440   30.5755  -23.1003 C   0  0  0  0  0  0  0  0  0  0  0  0
  -15.3965   31.0919  -23.7347 C   0  0  0  0  0  0  0  0  0  0  0  0
  -16.5735   34.1005  -25.4902 C   0  0  0  0  0  0  0  0  0  0  0  0
  -16.3926   29.4901  -22.1406 N   0  0  0  0  0  0  0  0  0  0  0  0
  -15.4664   28.5806  -22.4906 O   0  0  0  0  0  0  0  0  0  0  0  0
  -16.4487   33.8727  -26.9014 C   0  0  0  0  0  0  0  0  0  0  0  0
  -17.7235   34.9416  -25.2358 C   0  0  0  0  0  0  0  0  0  0  0  0
  -16.5250   32.6326  -27.5854 C   0  0  0  0  0  0  0  0  0  0  0  0
  -16.3168   35.0242  -27.7384 C   0  0  0  0  0  0  0  0  0  0  0  0
  -16.0660   32.6488  -28.8451 C   0  0  0  0  0  0  0  0  0  0  0  0
  -16.0147   34.9525  -29.0700 C   0  0  0  0  0  0  0  0  0  0  0  0
  -15.8976   33.7249  -29.6301 C   0  0  0  0  0  0  0  0  0  0  0  0
  -17.4253   36.1704  -24.3690 C   0  0  0  0  0  0  0  0  0  0  0  0
  -18.3707   37.0489  -24.3861 O   0  0  0  0  0  0  0  0  0  0  0  0
  -16.5631   36.1839  -23.4627 O   0  0  0  0  0  0  0  0  0  0  0  0
  1  2  2  0
  2  3  1  0
  3  4  1  0
  4  5  2  0
  2  6  1  0
  5  7  1  0
  6  7  2  0
  4  8  1  0
  6  9  1  0
  9 10  1  0
  8 11  1  0
  8 12  1  0
 11 13  1  0
 11 14  2  0
 13 15  2  0
 14 16  1  0
 15 17  1  0
 16 17  2  0
 12 18  1  0
 18 19  2  0
 18 20  1  0
M  END
