
     RDKit          3D

 20 20  0  0  0  0  0  0  0  0999 V2000
  -14.7229   35.1078  -25.3805 O   0  0  0  0  0  0  0  0  0  0  0  0
  -16.0591   34.8928  -25.1531 C   0  0  0  0  0  0  0  0  0  0  0  0
  -16.8422   35.0703  -26.3126 C   0  0  0  0  0  0  0  0  0  0  0  0
  -16.6319   35.5753  -24.0465 C   0  0  0  0  0  0  0  0  0  0  0  0
  -17.7266   35.2726  -23.6432 O   0  0  0  0  0  0  0  0  0  0  0  0
  -16.2310   35.5480  -27.4050 O   0  0  0  0  0  0  0  0  0  0  0  0
  -16.1188   36.6370  -23.6282 O   0  0  0  0  0  0  0  0  0  0  0  0
  -17.3500   33.5738  -26.8222 C   0  0  0  0  0  0  0  0  0  0  0  0
  -16.5793   32.6616  -26.1617 C   0  0  0  0  0  0  0  0  0  0  0  0
  -17.1044   33.3107  -28.2991 O   0  0  0  0  0  0  0  0  0  0  0  0
  -16.3446   33.3482  -24.8287 C   0  0  0  0  0  0  0  0  0  0  0  0
  -17.1609   31.4355  -25.9587 O   0  0  0  0  0  0  0  0  0  0  0  0
  -17.4318   32.9155  -24.0326 O   0  0  0  0  0  0  0  0  0  0  0  0
  -17.3748   31.7534  -23.3922 C   0  0  0  0  0  0  0  0  0  0  0  0
  -18.7055   31.1776  -23.1159 C   0  0  0  0  0  0  0  0  0  0  0  0
  -18.8414   30.1187  -22.7162 O   0  0  0  0  0  0  0  0  0  0  0  0
  -19.5668   32.1828  -22.8661 O   0  0  0  0  0  0  0  0  0  0  0  0
  -16.2752   31.0537  -23.2538 C   0  0  0  0  0  0  0  0  0  0  0  0
  -16.1017   29.8608  -22.5394 C   0  0  0  0  0  0  0  0  0  0  0  0
  -15.1769   28.9973  -22.9009 O   0  0  0  0  0  0  0  0  0  0  0  0
  1  2  1  0
  2  3  1  0
  2  4  1  0
  4  5  2  0
  3  6  1  0
  4  7  1  0
  3  8  1  0
  8  9  1  0
  8 10  1  0
  2 11  1  0
  9 11  1  0
  9 12  1  0
 11 13  1  0
 13 14  1  0
 14 15  1  0
 15 16  1  0
 15 17  2  0
 14 18  2  3
 18 19  1  0
 19 20  2  0
M  END
