
     RDKit          3D

 20 20  0  0  0  0  0  0  0  0999 V2000
  -14.5641   27.9429  -22.9616 O   0  0  0  0  0  0  0  0  0  0  0  0
  -15.4945   28.7790  -22.3161 C   0  0  0  0  0  0  0  0  0  0  0  0
  -15.4639   30.1098  -22.6289 C   0  0  0  0  0  0  0  0  0  0  0  0
  -16.8261   30.7553  -22.7022 C   0  0  0  0  0  0  0  0  0  0  0  0
  -16.9667   31.8001  -23.5852 C   0  0  0  0  0  0  0  0  0  0  0  0
  -17.8289   29.7021  -23.0014 O   0  0  0  0  0  0  0  0  0  0  0  0
  -15.9278   32.0980  -24.3612 O   0  0  0  0  0  0  0  0  0  0  0  0
  -18.1237   32.4061  -23.7120 N   0  0  0  0  0  0  0  0  0  0  0  0
  -18.3888   33.4455  -24.6997 C   0  0  0  0  0  0  0  0  0  0  0  0
  -17.9673   34.6327  -24.2023 C   0  0  0  0  0  0  0  0  0  0  0  0
  -18.9713   33.1853  -25.6137 C   0  0  0  0  0  0  0  0  0  0  0  0
  -18.0181   35.7180  -25.1725 C   0  0  0  0  0  0  0  0  0  0  0  0
  -19.1271   34.1322  -26.7233 C   0  0  0  0  0  0  0  0  0  0  0  0
  -19.7948   33.8430  -27.9606 C   0  0  0  0  0  0  0  0  0  0  0  0
  -18.6430   35.4596  -26.4203 C   0  0  0  0  0  0  0  0  0  0  0  0
  -17.2832   35.0412  -22.9465 O   0  0  0  0  0  0  0  0  0  0  0  0
  -17.0241   36.4342  -22.5488 P   0  0  0  0  0  0  0  0  0  0  0  0
  -16.1691   37.0830  -23.2463 O   0  0  0  0  0  0  0  0  0  0  0  0
  -16.8752   36.3295  -20.9667 O   0  0  0  0  0  0  0  0  0  0  0  0
  -18.5650   37.0389  -22.6395 O   0  0  0  0  0  0  0  0  0  0  0  0
  1  2  1  0
  2  3  1  0
  3  4  1  0
  4  5  1  0
  4  6  1  0
  5  7  2  0
  5  8  1  0
  8  9  1  0
  9 10  1  0
  9 11  2  0
 10 12  2  0
 11 13  1  0
 13 14  1  0
 12 15  1  0
 13 15  2  0
 10 16  1  0
 16 17  1  0
 17 18  1  0
 17 19  1  0
 17 20  2  0
M  END
