
     RDKit          3D

 20 21  0  0  0  0  0  0  0  0999 V2000
  -19.3446   30.8550  -22.3508 O   0  0  0  0  0  0  0  0  0  0  0  0
  -18.7300   31.9008  -22.5517 C   0  0  0  0  0  0  0  0  0  0  0  0
  -19.0880   32.9878  -21.7764 C   0  0  0  0  0  0  0  0  0  0  0  0
  -17.9351   32.0100  -23.5396 N   0  0  0  0  0  0  0  0  0  0  0  0
  -17.2697   33.1578  -23.9529 C   0  0  0  0  0  0  0  0  0  0  0  0
  -17.6577   34.3706  -23.3586 C   0  0  0  0  0  0  0  0  0  0  0  0
  -18.5589   34.2652  -22.2249 N   0  0  0  0  0  0  0  0  0  0  0  0
  -16.3706   33.0911  -25.0712 C   0  0  0  0  0  0  0  0  0  0  0  0
  -17.5600   30.7376  -24.2788 C   0  0  0  0  0  0  0  0  0  0  0  0
  -16.6875   33.8803  -26.2316 C   0  0  0  0  0  0  0  0  0  0  0  0
  -15.1548   32.6077  -24.8261 O   0  0  0  0  0  0  0  0  0  0  0  0
  -16.3932   33.1988  -27.4457 C   0  0  0  0  0  0  0  0  0  0  0  0
  -17.0009   35.2352  -26.1773 C   0  0  0  0  0  0  0  0  0  0  0  0
  -17.2285   29.7650  -23.1488 C   0  0  0  0  0  0  0  0  0  0  0  0
  -15.6598   29.5688  -22.9602 C   0  0  0  0  0  0  0  0  0  0  0  0
  -15.0854   30.5770  -22.8600 O   0  0  0  0  0  0  0  0  0  0  0  0
  -17.2521   35.8741  -27.3917 C   0  0  0  0  0  0  0  0  0  0  0  0
  -15.2326   28.3380  -22.8305 O   0  0  0  0  0  0  0  0  0  0  0  0
  -17.1241   35.2529  -28.5890 C   0  0  0  0  0  0  0  0  0  0  0  0
  -16.6918   33.9519  -28.6387 C   0  0  0  0  0  0  0  0  0  0  0  0
  1  2  2  0
  2  3  1  0
  2  4  1  0
  4  5  1  0
  5  6  2  0
  3  7  2  0
  6  7  1  0
  5  8  1  0
  4  9  1  0
  8 10  1  0
  8 11  2  0
 10 12  1  0
 10 13  2  0
  9 14  1  0
 14 15  1  0
 15 16  2  0
 13 17  1  0
 15 18  1  0
 17 19  2  0
 12 20  2  0
 19 20  1  0
M  END
