
     RDKit          3D

 13 13  0  0  0  0  0  0  0  0999 V2000
  -15.9333   33.3737  -28.3999 O   0  0  0  0  0  0  0  0  0  0  0  0
  -16.7726   33.1245  -27.5037 C   0  0  0  0  0  0  0  0  0  0  0  0
  -17.4592   34.0831  -26.9777 C   0  0  0  0  0  0  0  0  0  0  0  0
  -17.7255   33.9447  -25.5308 C   0  0  0  0  0  0  0  0  0  0  0  0
  -17.0540   34.8435  -24.7937 C   0  0  0  0  0  0  0  0  0  0  0  0
  -19.2448   34.1208  -25.4155 C   0  0  0  0  0  0  0  0  0  0  0  0
  -17.4585   32.5210  -25.1860 C   0  0  0  0  0  0  0  0  0  0  0  0
  -17.1629   32.2385  -23.7985 C   0  0  0  0  0  0  0  0  0  0  0  0
  -17.4356   30.9517  -23.3251 C   0  0  0  0  0  0  0  0  0  0  0  0
  -16.6944   32.3063  -26.3857 C   0  0  0  0  0  0  0  0  0  0  0  0
  -16.4598   30.0977  -22.8327 C   0  0  0  0  0  0  0  0  0  0  0  0
  -15.1777   30.5763  -22.7921 O   0  0  0  0  0  0  0  0  0  0  0  0
  -16.6342   28.9289  -22.3675 O   0  0  0  0  0  0  0  0  0  0  0  0
  1  2  1  0
  2  3  1  0
  3  4  1  0
  4  5  1  0
  4  6  1  0
  4  7  1  0
  7  8  1  0
  8  9  1  0
  2 10  1  0
  7 10  1  0
  9 11  1  0
 11 12  1  0
 11 13  2  0
M  END
