
     RDKit          3D

 20 20  0  0  0  0  0  0  0  0999 V2000
  -19.3446   30.8550  -22.3508 O   0  0  0  0  0  0  0  0  0  0  0  0
  -18.7300   31.9008  -22.5517 C   0  0  0  0  0  0  0  0  0  0  0  0
  -17.8540   31.8182  -23.4464 C   0  0  0  0  0  0  0  0  0  0  0  0
  -19.3128   33.0394  -21.9933 O   0  0  0  0  0  0  0  0  0  0  0  0
  -17.6027   32.9491  -24.3442 C   0  0  0  0  0  0  0  0  0  0  0  0
  -16.6313   31.0997  -23.1049 N   0  0  0  0  0  0  0  0  0  0  0  0
  -16.6057   33.7145  -24.3308 C   0  0  0  0  0  0  0  0  0  0  0  0
  -18.7856   33.3475  -25.1864 C   0  0  0  0  0  0  0  0  0  0  0  0
  -18.7486   34.4305  -26.0247 C   0  0  0  0  0  0  0  0  0  0  0  0
  -16.6013   29.8664  -22.5617 C   0  0  0  0  0  0  0  0  0  0  0  0
  -19.7545   34.7497  -26.9923 O   0  0  0  0  0  0  0  0  0  0  0  0
  -15.5099   33.3906  -23.5586 O   0  0  0  0  0  0  0  0  0  0  0  0
  -15.2028   29.3984  -22.2493 C   0  0  0  0  0  0  0  0  0  0  0  0
  -20.9150   34.8746  -26.4533 C   0  0  0  0  0  0  0  0  0  0  0  0
  -16.3375   34.7879  -25.2985 C   0  0  0  0  0  0  0  0  0  0  0  0
  -15.2167   28.0744  -22.1592 C   0  0  0  0  0  0  0  0  0  0  0  0
  -15.1878   35.4455  -25.3720 O   0  0  0  0  0  0  0  0  0  0  0  0
  -17.4338   35.1936  -26.2436 C   0  0  0  0  0  0  0  0  0  0  0  0
  -15.9218   27.3538  -21.5130 O   0  0  0  0  0  0  0  0  0  0  0  0
  -14.1621   27.4941  -22.8309 O   0  0  0  0  0  0  0  0  0  0  0  0
  1  2  1  0
  2  3  1  0
  2  4  2  0
  3  5  1  0
  3  6  1  0
  5  7  2  0
  5  8  1  0
  8  9  2  0
  6 10  1  0
  9 11  1  0
  7 12  1  0
 10 13  1  0
 11 14  1  0
  7 15  1  0
 13 16  1  0
 15 17  1  0
  9 18  1  0
 15 18  2  0
 16 19  2  0
 16 20  1  0
M  END
