
     RDKit          3D

 14 13  0  0  0  0  0  0  0  0999 V2000
  -16.3474   36.4961  -20.6363 O   0  0  0  0  0  0  0  0  0  0  0  0
  -17.7051   36.9438  -21.1925 P   0  0  0  0  0  0  0  0  0  0  0  0
  -17.7820   36.2280  -22.5043 O   0  0  0  0  0  0  0  0  0  0  0  0
  -18.9026   36.5696  -20.3381 O   0  0  0  0  0  0  0  0  0  0  0  0
  -17.4100   34.9962  -23.0425 C   0  0  0  0  0  0  0  0  0  0  0  0
  -17.6693   34.8389  -24.3852 C   0  0  0  0  0  0  0  0  0  0  0  0
  -17.7084   38.4079  -21.3099 O   0  0  0  0  0  0  0  0  0  0  0  0
  -16.4266   34.8495  -25.1541 C   0  0  0  0  0  0  0  0  0  0  0  0
  -15.4168   34.4037  -24.7101 O   0  0  0  0  0  0  0  0  0  0  0  0
  -16.7013   34.9547  -26.5858 C   0  0  0  0  0  0  0  0  0  0  0  0
  -16.5135   33.6202  -27.2448 C   0  0  0  0  0  0  0  0  0  0  0  0
  -15.9799   33.7702  -28.4815 O   0  0  0  0  0  0  0  0  0  0  0  0
  -18.6812   35.6652  -24.9658 O   0  0  0  0  0  0  0  0  0  0  0  0
  -15.7336   35.6947  -27.2142 O   0  0  0  0  0  0  0  0  0  0  0  0
  1  2  1  0
  2  3  1  0
  2  4  1  0
  3  5  1  0
  5  6  1  0
  2  7  2  0
  6  8  1  0
  8  9  1  0
  8 10  1  0
 10 11  1  0
 11 12  1  0
  6 13  1  0
 10 14  1  0
M  END
