
     RDKit          3D

 20 19  0  0  0  0  0  0  0  0999 V2000
  -16.3474   36.4961  -20.6363 O   0  0  0  0  0  0  0  0  0  0  0  0
  -17.7051   36.9438  -21.1925 P   0  0  0  0  0  0  0  0  0  0  0  0
  -17.7820   36.2280  -22.5043 O   0  0  0  0  0  0  0  0  0  0  0  0
  -18.8331   36.3525  -20.2709 O   0  0  0  0  0  0  0  0  0  0  0  0
  -17.8258   38.4225  -21.1273 O   0  0  0  0  0  0  0  0  0  0  0  0
  -16.8979   36.1997  -23.6560 C   0  0  0  0  0  0  0  0  0  0  0  0
  -17.2657   35.5258  -24.7559 C   0  0  0  0  0  0  0  0  0  0  0  0
  -16.2986   35.3399  -25.6873 C   0  0  0  0  0  0  0  0  0  0  0  0
  -16.7353   34.6395  -26.9610 C   0  0  0  0  0  0  0  0  0  0  0  0
  -16.5994   33.2227  -26.8722 C   0  0  0  0  0  0  0  0  0  0  0  0
  -17.2526   32.6142  -25.8861 C   0  0  0  0  0  0  0  0  0  0  0  0
  -16.3451   32.6003  -27.9892 C   0  0  0  0  0  0  0  0  0  0  0  0
  -15.6577   33.2137  -29.0809 C   0  0  0  0  0  0  0  0  0  0  0  0
  -16.4479   32.0541  -24.8758 C   0  0  0  0  0  0  0  0  0  0  0  0
  -16.9695   31.1886  -23.7773 C   0  0  0  0  0  0  0  0  0  0  0  0
  -18.3986   31.3330  -23.5808 C   0  0  0  0  0  0  0  0  0  0  0  0
  -16.0472   30.5598  -22.8949 C   0  0  0  0  0  0  0  0  0  0  0  0
  -14.8361   30.6498  -22.9917 O   0  0  0  0  0  0  0  0  0  0  0  0
  -18.9377   30.2586  -23.2714 O   0  0  0  0  0  0  0  0  0  0  0  0
  -16.5188   29.7683  -21.9707 O   0  0  0  0  0  0  0  0  0  0  0  0
  1  2  1  0
  2  3  1  0
  2  4  1  0
  2  5  2  0
  3  6  1  0
  6  7  1  0
  7  8  1  0
  8  9  1  0
  9 10  1  0
 10 11  1  0
 10 12  2  3
 12 13  1  0
 11 14  1  0
 14 15  2  3
 15 16  1  0
 15 17  1  0
 17 18  2  0
 16 19  1  0
 17 20  1  0
M  END
