
     RDKit          3D

 20 20  0  0  0  0  0  0  0  0999 V2000
  -19.3446   30.8550  -22.3508 O   0  0  0  0  0  0  0  0  0  0  0  0
  -18.4597   31.1126  -23.0456 C   0  0  0  0  0  0  0  0  0  0  0  0
  -17.1871   30.7122  -22.9124 C   0  0  0  0  0  0  0  0  0  0  0  0
  -18.7808   31.9781  -24.1227 C   0  0  0  0  0  0  0  0  0  0  0  0
  -20.0950   32.4076  -24.2988 O   0  0  0  0  0  0  0  0  0  0  0  0
  -16.8343   29.7382  -21.9122 O   0  0  0  0  0  0  0  0  0  0  0  0
  -17.7814   32.4395  -25.0688 C   0  0  0  0  0  0  0  0  0  0  0  0
  -16.4884   32.0098  -24.9005 C   0  0  0  0  0  0  0  0  0  0  0  0
  -16.1215   31.1865  -23.8237 C   0  0  0  0  0  0  0  0  0  0  0  0
  -18.0051   33.3391  -26.0850 C   0  0  0  0  0  0  0  0  0  0  0  0
  -17.9886   34.6904  -25.9158 C   0  0  0  0  0  0  0  0  0  0  0  0
  -18.0124   35.2828  -24.8137 N   0  0  0  0  0  0  0  0  0  0  0  0
  -14.7003   30.9083  -23.4663 O   0  0  0  0  0  0  0  0  0  0  0  0
  -17.5786   32.8717  -27.4083 C   0  0  0  0  0  0  0  0  0  0  0  0
  -16.8880   35.8196  -24.1626 C   0  0  0  0  0  0  0  0  0  0  0  0
  -17.7705   35.3557  -27.0717 O   0  0  0  0  0  0  0  0  0  0  0  0
  -15.8376   35.8851  -24.6936 O   0  0  0  0  0  0  0  0  0  0  0  0
  -17.2255   36.4707  -22.8391 C   0  0  0  0  0  0  0  0  0  0  0  0
  -16.6830   37.4070  -22.3167 O   0  0  0  0  0  0  0  0  0  0  0  0
  -17.8461   35.5938  -21.9188 O   0  0  0  0  0  0  0  0  0  0  0  0
  1  2  1  0
  2  3  1  0
  2  4  2  0
  4  5  1  0
  3  6  1  0
  4  7  1  0
  7  8  2  0
  3  9  2  0
  8  9  1  0
  7 10  1  0
 10 11  1  0
 11 12  1  0
  9 13  1  0
 10 14  1  0
 12 15  1  0
 11 16  2  0
 15 17  2  0
 15 18  1  0
 18 19  1  0
 18 20  2  0
M  END
