
     RDKit          3D

 20 21  0  0  0  0  0  0  0  0999 V2000
  -16.3474   36.4961  -20.6363 O   0  0  0  0  0  0  0  0  0  0  0  0
  -17.8080   37.0308  -20.6429 P   0  0  0  0  0  0  0  0  0  0  0  0
  -18.6671   36.4180  -19.8047 O   0  0  0  0  0  0  0  0  0  0  0  0
  -18.3069   36.4921  -22.1802 O   0  0  0  0  0  0  0  0  0  0  0  0
  -17.4566   35.7810  -23.2334 P   0  0  0  0  0  0  0  0  0  0  0  0
  -18.1439   38.4547  -20.5795 O   0  0  0  0  0  0  0  0  0  0  0  0
  -17.8621   34.5002  -23.3948 O   0  0  0  0  0  0  0  0  0  0  0  0
  -17.2314   36.8118  -24.3056 O   0  0  0  0  0  0  0  0  0  0  0  0
  -17.6513   33.6567  -24.6005 C   0  0  0  0  0  0  0  0  0  0  0  0
  -15.9294   35.6949  -22.5872 O   0  0  0  0  0  0  0  0  0  0  0  0
  -16.4769   32.9319  -24.6731 C   0  0  0  0  0  0  0  0  0  0  0  0
  -18.9819   32.7661  -24.5917 C   0  0  0  0  0  0  0  0  0  0  0  0
  -17.6540   34.5202  -25.8995 C   0  0  0  0  0  0  0  0  0  0  0  0
  -16.5954   31.5208  -24.3981 O   0  0  0  0  0  0  0  0  0  0  0  0
  -16.7298   34.0054  -26.8707 C   0  0  0  0  0  0  0  0  0  0  0  0
  -15.8483   33.1531  -26.0165 C   0  0  0  0  0  0  0  0  0  0  0  0
  -17.8283   31.3661  -23.6571 C   0  0  0  0  0  0  0  0  0  0  0  0
  -18.8826   31.7032  -24.0307 N   0  0  0  0  0  0  0  0  0  0  0  0
  -17.7426   30.0422  -22.8877 O   0  0  0  0  0  0  0  0  0  0  0  0
  -15.9524   34.9517  -27.6049 O   0  0  0  0  0  0  0  0  0  0  0  0
  1  2  1  0
  2  3  1  0
  2  4  1  0
  4  5  1  0
  2  6  2  0
  5  7  1  0
  5  8  2  0
  7  9  1  0
  5 10  1  0
  9 11  1  0
  9 12  1  0
  9 13  1  0
 11 14  1  0
 13 15  1  0
 11 16  1  0
 15 16  1  0
 14 17  1  0
 12 18  2  0
 17 18  1  0
 17 19  2  0
 15 20  1  0
M  END
