
     RDKit          3D

 20 20  0  0  0  0  0  0  0  0999 V2000
  -16.6013   36.7922  -21.0828 O   0  0  0  0  0  0  0  0  0  0  0  0
  -17.2686   36.6877  -22.2782 P   0  0  0  0  0  0  0  0  0  0  0  0
  -17.0897   35.4370  -22.8986 O   0  0  0  0  0  0  0  0  0  0  0  0
  -16.5069   37.7879  -23.0774 O   0  0  0  0  0  0  0  0  0  0  0  0
  -17.5276   34.9303  -24.1597 C   0  0  0  0  0  0  0  0  0  0  0  0
  -18.7744   37.1444  -22.4090 O   0  0  0  0  0  0  0  0  0  0  0  0
  -17.0095   33.6339  -24.3741 C   0  0  0  0  0  0  0  0  0  0  0  0
  -17.8993   32.6201  -24.0189 N   0  0  0  0  0  0  0  0  0  0  0  0
  -17.5107   31.3410  -23.7600 C   0  0  0  0  0  0  0  0  0  0  0  0
  -18.4974   30.5486  -22.9659 N   0  0  0  0  0  0  0  0  0  0  0  0
  -16.1893   31.1120  -23.3545 N   0  0  0  0  0  0  0  0  0  0  0  0
  -19.0813   32.8402  -24.8237 C   0  0  0  0  0  0  0  0  0  0  0  0
  -15.9865   33.4011  -25.3316 C   0  0  0  0  0  0  0  0  0  0  0  0
  -16.2450   32.6241  -26.4133 C   0  0  0  0  0  0  0  0  0  0  0  0
  -19.3644   32.0494  -26.0988 C   0  0  0  0  0  0  0  0  0  0  0  0
  -15.6842   30.0319  -22.8261 C   0  0  0  0  0  0  0  0  0  0  0  0
  -16.6479   33.4748  -27.6848 C   0  0  0  0  0  0  0  0  0  0  0  0
  -16.5511   29.2201  -22.0683 C   0  0  0  0  0  0  0  0  0  0  0  0
  -16.3119   34.7274  -27.7743 O   0  0  0  0  0  0  0  0  0  0  0  0
  -17.9567   29.6594  -22.2839 C   0  0  0  0  0  0  0  0  0  0  0  0
  1  2  1  0
  2  3  1  0
  2  4  2  0
  3  5  1  0
  2  6  1  0
  5  7  1  0
  7  8  1  0
  8  9  1  0
  9 10  1  0
  9 11  2  0
  8 12  1  0
  7 13  1  0
 13 14  1  0
 12 15  1  0
 11 16  1  0
 14 17  1  0
 16 18  2  0
 17 19  1  0
 10 20  2  0
 18 20  1  0
M  END
