
     RDKit          3D

 21 23  0  0  0  0  0  0  0  0999 V2000
  -14.6538   27.9379  -22.8542 O   0  0  0  0  0  0  0  0  0  0  0  0
  -15.5100   28.8910  -22.3432 C   0  0  0  0  0  0  0  0  0  0  0  0
  -16.6014   28.4621  -21.8747 O   0  0  0  0  0  0  0  0  0  0  0  0
  -15.3815   30.2546  -22.6122 C   0  0  0  0  0  0  0  0  0  0  0  0
  -16.7220   30.8906  -22.7635 N   0  0  0  0  0  0  0  0  0  0  0  0
  -17.9296   30.5792  -22.2351 C   0  0  0  0  0  0  0  0  0  0  0  0
  -18.9359   31.0667  -23.2313 C   0  0  0  0  0  0  0  0  0  0  0  0
  -18.2272   31.4174  -24.4878 C   0  0  0  0  0  0  0  0  0  0  0  0
  -16.8206   32.0505  -23.6501 C   0  0  0  0  0  0  0  0  0  0  0  0
  -18.7725   32.4797  -25.3505 C   0  0  0  0  0  0  0  0  0  0  0  0
  -15.6657   32.1555  -24.6240 C   0  0  0  0  0  0  0  0  0  0  0  0
  -15.8940   33.4140  -25.4642 C   0  0  0  0  0  0  0  0  0  0  0  0
  -16.7458   33.3828  -26.5688 C   0  0  0  0  0  0  0  0  0  0  0  0
  -16.3581   34.3415  -27.5701 O   0  0  0  0  0  0  0  0  0  0  0  0
  -18.2631   33.6249  -26.2438 C   0  0  0  0  0  0  0  0  0  0  0  0
  -16.0637   34.5865  -24.5429 O   0  0  0  0  0  0  0  0  0  0  0  0
  -18.4307   34.7428  -25.4116 O   0  0  0  0  0  0  0  0  0  0  0  0
  -17.1867   35.5165  -24.9658 C   0  0  0  0  0  0  0  0  0  0  0  0
  -17.4342   36.5063  -23.9748 C   0  0  0  0  0  0  0  0  0  0  0  0
  -18.5196   36.7402  -23.6350 O   0  0  0  0  0  0  0  0  0  0  0  0
  -16.3875   36.9580  -23.3178 O   0  0  0  0  0  0  0  0  0  0  0  0
  1  2  2  0
  2  3  1  0
  2  4  1  0
  4  5  1  0
  5  6  1  0
  6  7  1  0
  7  8  1  0
  5  9  1  0
  8  9  1  0
  8 10  1  0
  9 11  1  0
 11 12  1  0
 12 13  1  0
 13 14  1  0
 10 15  1  0
 13 15  1  0
 12 16  1  0
 15 17  1  0
 16 18  1  0
 17 18  1  0
 18 19  1  0
 19 20  1  0
 19 21  2  0
M  END
