
     RDKit          3D

  6  6  0  0  0  0  0  0  0  0999 V2000
  -17.5932   30.1573  -22.6492 N   0  0  0  0  0  0  0  0  0  0  0  0
  -16.3211   30.0927  -22.7467 C   0  0  0  0  0  0  0  0  0  0  0  0
  -15.5031   29.0833  -22.2451 N   0  0  0  0  0  0  0  0  0  0  0  0
  -18.3255   31.1639  -23.1701 C   0  0  0  0  0  0  0  0  0  0  0  0
  -17.3339   31.9116  -23.8761 N   0  0  0  0  0  0  0  0  0  0  0  0
  -16.0976   31.2052  -23.5881 C   0  0  0  0  0  0  0  0  0  0  0  0
  1  2  1  0
  2  3  1  0
  1  4  1  0
  4  5  2  0
  2  6  2  0
  5  6  1  0
M  END
