
     RDKit          3D

 21 23  0  0  0  0  0  0  0  0999 V2000
  -15.8083   32.7177  -28.8896 C   0  0  0  0  0  0  0  0  0  0  0  0
  -15.9633   33.9835  -28.7270 C   0  0  0  0  0  0  0  0  0  0  0  0
  -16.3247   31.7979  -27.8927 C   0  0  0  0  0  0  0  0  0  0  0  0
  -16.9183   32.4018  -26.8421 C   0  0  0  0  0  0  0  0  0  0  0  0
  -16.3728   34.4806  -27.6485 C   0  0  0  0  0  0  0  0  0  0  0  0
  -17.5658   31.5512  -25.8109 C   0  0  0  0  0  0  0  0  0  0  0  0
  -18.9148   32.0686  -25.5521 C   0  0  0  0  0  0  0  0  0  0  0  0
  -17.0019   33.7585  -26.7271 C   0  0  0  0  0  0  0  0  0  0  0  0
  -16.9265   31.7135  -24.4800 C   0  0  0  0  0  0  0  0  0  0  0  0
  -19.4379   31.4720  -24.3210 C   0  0  0  0  0  0  0  0  0  0  0  0
  -18.1452   31.4051  -23.4591 C   0  0  0  0  0  0  0  0  0  0  0  0
  -16.4084   33.1199  -24.3172 C   0  0  0  0  0  0  0  0  0  0  0  0
  -16.0132   30.7132  -24.0108 C   0  0  0  0  0  0  0  0  0  0  0  0
  -14.6891   31.1086  -24.0257 O   0  0  0  0  0  0  0  0  0  0  0  0
  -17.3517   34.1928  -25.2984 C   0  0  0  0  0  0  0  0  0  0  0  0
  -16.1702   29.5798  -23.5917 N   0  0  0  0  0  0  0  0  0  0  0  0
  -17.2309   29.1038  -23.1671 O   0  0  0  0  0  0  0  0  0  0  0  0
  -15.0466   28.7026  -23.1516 O   0  0  0  0  0  0  0  0  0  0  0  0
  -16.8621   35.5802  -25.0203 C   0  0  0  0  0  0  0  0  0  0  0  0
  -16.1147   35.8765  -24.0002 O   0  0  0  0  0  0  0  0  0  0  0  0
  -17.7310   36.4597  -25.4559 O   0  0  0  0  0  0  0  0  0  0  0  0
  1  2  1  0
  1  3  2  0
  3  4  1  0
  2  5  2  0
  4  6  1  0
  6  7  1  0
  4  8  2  0
  5  8  1  0
  6  9  1  0
  7 10  1  0
  9 11  1  0
 10 11  1  0
  9 12  1  0
  9 13  1  0
 13 14  2  0
  8 15  1  0
 12 15  1  0
 13 16  1  0
 16 17  1  0
 16 18  1  0
 15 19  1  0
 19 20  1  0
 19 21  2  0
M  END
