
     RDKit          3D

 21 22  0  0  0  0  0  0  0  0999 V2000
  -16.3474   36.4961  -20.6363 O   0  0  0  0  0  0  0  0  0  0  0  0
  -17.7051   36.9438  -21.1925 P   0  0  0  0  0  0  0  0  0  0  0  0
  -17.7820   36.2280  -22.5043 O   0  0  0  0  0  0  0  0  0  0  0  0
  -18.8331   36.3525  -20.2709 O   0  0  0  0  0  0  0  0  0  0  0  0
  -17.3241   35.0623  -23.0663 C   0  0  0  0  0  0  0  0  0  0  0  0
  -17.8513   38.3874  -21.1484 O   0  0  0  0  0  0  0  0  0  0  0  0
  -17.4787   34.8959  -24.4021 C   0  0  0  0  0  0  0  0  0  0  0  0
  -16.2007   34.8569  -25.0976 C   0  0  0  0  0  0  0  0  0  0  0  0
  -18.2721   33.5876  -24.6039 O   0  0  0  0  0  0  0  0  0  0  0  0
  -16.3371   33.8988  -26.3147 C   0  0  0  0  0  0  0  0  0  0  0  0
  -15.1305   34.1347  -24.6435 O   0  0  0  0  0  0  0  0  0  0  0  0
  -17.7312   33.0782  -25.8573 C   0  0  0  0  0  0  0  0  0  0  0  0
  -17.6552   31.6459  -25.4175 C   0  0  0  0  0  0  0  0  0  0  0  0
  -16.9085   31.6610  -24.2364 O   0  0  0  0  0  0  0  0  0  0  0  0
  -17.2257   30.8171  -23.0294 C   0  0  0  0  0  0  0  0  0  0  0  0
  -16.4057   30.0826  -22.4246 C   0  0  0  0  0  0  0  0  0  0  0  0
  -16.5686   34.5326  -27.5746 O   0  0  0  0  0  0  0  0  0  0  0  0
  -16.6199   28.9346  -21.8370 C   0  0  0  0  0  0  0  0  0  0  0  0
  -17.8429   28.4861  -21.7669 C   0  0  0  0  0  0  0  0  0  0  0  0
  -18.8978   29.2065  -22.3293 C   0  0  0  0  0  0  0  0  0  0  0  0
  -18.6666   30.4251  -23.1738 C   0  0  0  0  0  0  0  0  0  0  0  0
  1  2  1  0
  2  3  1  0
  2  4  1  0
  3  5  1  0
  2  6  2  0
  5  7  1  0
  7  8  1  0
  7  9  1  0
  8 10  1  0
  8 11  1  0
  9 12  1  0
 10 12  1  0
 12 13  1  0
 13 14  1  0
 14 15  1  0
 15 16  1  0
 10 17  1  0
 16 18  2  0
 18 19  1  0
 19 20  2  0
 15 21  2  0
 20 21  1  0
M  END
