
     RDKit          3D

 21 22  0  0  0  0  0  0  0  0999 V2000
  -16.3474   36.4961  -20.6363 O   0  0  0  0  0  0  0  0  0  0  0  0
  -17.7051   36.9438  -21.1925 P   0  0  0  0  0  0  0  0  0  0  0  0
  -17.7820   36.2280  -22.5043 O   0  0  0  0  0  0  0  0  0  0  0  0
  -18.8331   36.3525  -20.2709 O   0  0  0  0  0  0  0  0  0  0  0  0
  -17.3241   35.0623  -23.0663 C   0  0  0  0  0  0  0  0  0  0  0  0
  -17.8513   38.3874  -21.1484 O   0  0  0  0  0  0  0  0  0  0  0  0
  -17.4787   34.8959  -24.4021 C   0  0  0  0  0  0  0  0  0  0  0  0
  -16.2007   34.8569  -25.0976 C   0  0  0  0  0  0  0  0  0  0  0  0
  -18.2721   33.5876  -24.6039 O   0  0  0  0  0  0  0  0  0  0  0  0
  -16.3371   33.8988  -26.3147 C   0  0  0  0  0  0  0  0  0  0  0  0
  -15.1305   34.1347  -24.6435 O   0  0  0  0  0  0  0  0  0  0  0  0
  -17.7312   33.0782  -25.8573 C   0  0  0  0  0  0  0  0  0  0  0  0
  -17.6552   31.6459  -25.4175 C   0  0  0  0  0  0  0  0  0  0  0  0
  -16.6618   34.6467  -27.5585 O   0  0  0  0  0  0  0  0  0  0  0  0
  -17.7735   31.6037  -24.0295 N   0  0  0  0  0  0  0  0  0  0  0  0
  -17.0358   30.6942  -23.2469 C   0  0  0  0  0  0  0  0  0  0  0  0
  -17.4375   29.8002  -22.6244 N   0  0  0  0  0  0  0  0  0  0  0  0
  -15.6692   31.1422  -23.1581 N   0  0  0  0  0  0  0  0  0  0  0  0
  -14.7833   30.1951  -22.7724 C   0  0  0  0  0  0  0  0  0  0  0  0
  -15.4286   29.0208  -22.3522 C   0  0  0  0  0  0  0  0  0  0  0  0
  -16.6825   28.8325  -22.1675 C   0  0  0  0  0  0  0  0  0  0  0  0
  1  2  1  0
  2  3  1  0
  2  4  1  0
  3  5  1  0
  2  6  2  0
  5  7  1  0
  7  8  1  0
  7  9  1  0
  8 10  1  0
  8 11  1  0
  9 12  1  0
 10 12  1  0
 12 13  1  0
 10 14  1  0
 13 15  1  0
 15 16  1  0
 16 17  2  0
 16 18  1  0
 18 19  1  0
 19 20  2  0
 17 21  1  0
 20 21  1  0
M  END
