
     RDKit          3D

 14 14  0  0  0  0  0  0  0  0999 V2000
  -14.7852   31.5926  -24.1597 N   0  0  0  0  0  0  0  0  0  0  0  0
  -15.3924   30.8150  -23.3107 C   0  0  0  0  0  0  0  0  0  0  0  0
  -15.3886   32.8554  -24.4898 C   0  0  0  0  0  0  0  0  0  0  0  0
  -14.8368   29.7127  -22.8037 O   0  0  0  0  0  0  0  0  0  0  0  0
  -16.6612   33.0931  -24.3308 C   0  0  0  0  0  0  0  0  0  0  0  0
  -17.4175   32.0940  -23.6466 C   0  0  0  0  0  0  0  0  0  0  0  0
  -17.3288   34.3297  -24.8499 C   0  0  0  0  0  0  0  0  0  0  0  0
  -18.8029   32.2239  -23.3439 O   0  0  0  0  0  0  0  0  0  0  0  0
  -16.8435   30.9520  -23.0695 C   0  0  0  0  0  0  0  0  0  0  0  0
  -16.7479   35.4223  -24.3956 O   0  0  0  0  0  0  0  0  0  0  0  0
  -17.3649   34.2508  -26.3861 C   0  0  0  0  0  0  0  0  0  0  0  0
  -17.5522   30.0838  -22.4863 O   0  0  0  0  0  0  0  0  0  0  0  0
  -16.1566   34.1129  -26.9603 N   0  0  0  0  0  0  0  0  0  0  0  0
  -16.1476   34.7883  -28.2230 C   0  0  0  0  0  0  0  0  0  0  0  0
  1  2  1  0
  1  3  1  0
  2  4  2  0
  3  5  2  0
  5  6  1  0
  5  7  1  0
  6  8  1  0
  2  9  1  0
  6  9  2  0
  7 10  1  0
  7 11  1  0
  9 12  1  0
 11 13  1  0
 13 14  1  0
M  END
