
     RDKit          3D

 22 22  0  0  0  0  0  0  0  0999 V2000
  -16.3474   36.4961  -20.6363 O   0  0  0  0  0  0  0  0  0  0  0  0
  -17.8080   37.0308  -20.6429 P   0  0  0  0  0  0  0  0  0  0  0  0
  -18.6671   36.4180  -19.8047 O   0  0  0  0  0  0  0  0  0  0  0  0
  -18.3069   36.4921  -22.1802 O   0  0  0  0  0  0  0  0  0  0  0  0
  -17.8249   38.4722  -20.5096 O   0  0  0  0  0  0  0  0  0  0  0  0
  -17.5243   35.7189  -23.0990 P   0  0  0  0  0  0  0  0  0  0  0  0
  -17.9841   34.4230  -23.2706 O   0  0  0  0  0  0  0  0  0  0  0  0
  -17.4439   33.3189  -24.0671 C   0  0  0  0  0  0  0  0  0  0  0  0
  -18.0965   32.0919  -23.7460 C   0  0  0  0  0  0  0  0  0  0  0  0
  -17.6560   33.7112  -25.5367 C   0  0  0  0  0  0  0  0  0  0  0  0
  -17.2306   31.0763  -23.2918 C   0  0  0  0  0  0  0  0  0  0  0  0
  -15.9479   31.0876  -23.3230 C   0  0  0  0  0  0  0  0  0  0  0  0
  -19.0780   32.2712  -22.6896 O   0  0  0  0  0  0  0  0  0  0  0  0
  -17.7352   30.0258  -22.4384 O   0  0  0  0  0  0  0  0  0  0  0  0
  -18.1609   32.9392  -26.3369 O   0  0  0  0  0  0  0  0  0  0  0  0
  -15.2769   32.0115  -24.0535 C   0  0  0  0  0  0  0  0  0  0  0  0
  -17.4085   36.4446  -24.4519 O   0  0  0  0  0  0  0  0  0  0  0  0
  -15.1026   30.0189  -22.8619 O   0  0  0  0  0  0  0  0  0  0  0  0
  -16.0239   35.6482  -22.6411 O   0  0  0  0  0  0  0  0  0  0  0  0
  -16.0884   33.2727  -24.2141 C   0  0  0  0  0  0  0  0  0  0  0  0
  -17.0428   34.7123  -26.1338 O   0  0  0  0  0  0  0  0  0  0  0  0
  -18.3847   33.0708  -27.6018 C   0  0  0  0  0  0  0  0  0  0  0  0
  1  2  1  0
  2  3  1  0
  2  4  1  0
  2  5  2  0
  4  6  1  0
  6  7  1  0
  7  8  1  0
  8  9  1  0
  8 10  1  0
  9 11  1  0
 11 12  2  0
  9 13  1  0
 11 14  1  0
 10 15  1  0
 12 16  1  0
  6 17  2  0
 12 18  1  0
  6 19  1  0
  8 20  1  0
 16 20  2  0
 10 21  2  0
 15 22  1  0
M  END
