
     RDKit          3D

 22 23  0  0  0  0  0  0  0  0999 V2000
  -16.3474   36.4961  -20.6363 O   0  0  0  0  0  0  0  0  0  0  0  0
  -17.8080   37.0308  -20.6429 P   0  0  0  0  0  0  0  0  0  0  0  0
  -18.6671   36.4180  -19.8047 O   0  0  0  0  0  0  0  0  0  0  0  0
  -18.3069   36.4921  -22.1802 O   0  0  0  0  0  0  0  0  0  0  0  0
  -17.4566   35.7810  -23.2334 P   0  0  0  0  0  0  0  0  0  0  0  0
  -18.1439   38.4547  -20.5795 O   0  0  0  0  0  0  0  0  0  0  0  0
  -17.8621   34.5002  -23.3948 O   0  0  0  0  0  0  0  0  0  0  0  0
  -17.2314   36.8118  -24.3056 O   0  0  0  0  0  0  0  0  0  0  0  0
  -17.6513   33.6567  -24.6005 C   0  0  0  0  0  0  0  0  0  0  0  0
  -15.9294   35.6949  -22.5872 O   0  0  0  0  0  0  0  0  0  0  0  0
  -16.4769   32.9319  -24.6731 C   0  0  0  0  0  0  0  0  0  0  0  0
  -18.9819   32.7661  -24.5917 C   0  0  0  0  0  0  0  0  0  0  0  0
  -17.6540   34.5202  -25.8995 C   0  0  0  0  0  0  0  0  0  0  0  0
  -16.7364   34.0225  -26.8957 C   0  0  0  0  0  0  0  0  0  0  0  0
  -16.2735   32.8072  -26.2669 C   0  0  0  0  0  0  0  0  0  0  0  0
  -16.6554   31.6519  -24.0543 N   0  0  0  0  0  0  0  0  0  0  0  0
  -18.4523   31.5687  -23.7853 C   0  0  0  0  0  0  0  0  0  0  0  0
  -18.6424   31.3369  -22.5781 O   0  0  0  0  0  0  0  0  0  0  0  0
  -16.9262   33.8869  -28.2283 O   0  0  0  0  0  0  0  0  0  0  0  0
  -15.8942   31.1959  -23.0703 C   0  0  0  0  0  0  0  0  0  0  0  0
  -14.8340   31.6798  -22.9544 O   0  0  0  0  0  0  0  0  0  0  0  0
  -16.0731   29.7704  -22.6680 C   0  0  0  0  0  0  0  0  0  0  0  0
  1  2  1  0
  2  3  1  0
  2  4  1  0
  4  5  1  0
  2  6  2  0
  5  7  1  0
  5  8  2  0
  7  9  1  0
  5 10  1  0
  9 11  1  0
  9 12  1  0
  9 13  1  0
 13 14  1  0
 11 15  1  0
 14 15  1  0
 11 16  1  0
 12 17  1  0
 16 17  1  0
 17 18  1  0
 14 19  1  0
 16 20  1  0
 20 21  2  0
 20 22  1  0
M  END
