
     RDKit          3D

 22 23  0  0  0  0  0  0  0  0999 V2000
  -16.3898   37.6991  -22.6971 O   0  0  0  0  0  0  0  0  0  0  0  0
  -17.2647   36.8296  -21.9599 P   0  0  0  0  0  0  0  0  0  0  0  0
  -17.0211   36.5852  -20.5789 O   0  0  0  0  0  0  0  0  0  0  0  0
  -17.3031   35.5066  -22.7391 O   0  0  0  0  0  0  0  0  0  0  0  0
  -18.8313   37.2995  -22.0807 O   0  0  0  0  0  0  0  0  0  0  0  0
  -18.2955   34.6669  -23.2691 C   0  0  0  0  0  0  0  0  0  0  0  0
  -18.1276   34.4864  -24.6578 C   0  0  0  0  0  0  0  0  0  0  0  0
  -16.9365   34.8123  -25.1885 C   0  0  0  0  0  0  0  0  0  0  0  0
  -18.5128   32.9553  -24.4775 O   0  0  0  0  0  0  0  0  0  0  0  0
  -15.8164   34.2183  -24.7976 O   0  0  0  0  0  0  0  0  0  0  0  0
  -18.0936   32.2832  -23.5135 C   0  0  0  0  0  0  0  0  0  0  0  0
  -16.9496   34.8140  -26.7453 C   0  0  0  0  0  0  0  0  0  0  0  0
  -15.9072   35.4570  -27.2555 O   0  0  0  0  0  0  0  0  0  0  0  0
  -18.2006   33.2333  -22.4670 C   0  0  0  0  0  0  0  0  0  0  0  0
  -16.9893   31.4705  -23.5457 N   0  0  0  0  0  0  0  0  0  0  0  0
  -18.6017   33.1289  -21.2407 O   0  0  0  0  0  0  0  0  0  0  0  0
  -16.9229   30.2218  -22.9119 C   0  0  0  0  0  0  0  0  0  0  0  0
  -15.8681   31.7317  -24.3718 C   0  0  0  0  0  0  0  0  0  0  0  0
  -15.6751   33.0407  -24.8299 C   0  0  0  0  0  0  0  0  0  0  0  0
  -17.9984   29.5028  -22.6426 O   0  0  0  0  0  0  0  0  0  0  0  0
  -15.7400   29.7489  -22.2957 N   0  0  0  0  0  0  0  0  0  0  0  0
  -15.7283   28.4652  -21.6324 C   0  0  0  0  0  0  0  0  0  0  0  0
  1  2  2  0
  2  3  1  0
  2  4  1  0
  2  5  1  0
  4  6  1  0
  6  7  1  0
  7  8  1  0
  7  9  1  0
  8 10  1  0
  9 11  1  0
  8 12  1  0
 12 13  1  0
  6 14  1  0
 11 14  1  0
 11 15  1  0
 14 16  2  0
 15 17  1  0
 15 18  1  0
 10 19  1  0
 18 19  2  0
 17 20  2  0
 17 21  1  0
 21 22  1  0
M  END
