
     RDKit          3D

 22 22  0  0  0  0  0  0  0  0999 V2000
  -16.3474   36.4961  -20.6363 O   0  0  0  0  0  0  0  0  0  0  0  0
  -17.7051   36.9438  -21.1925 P   0  0  0  0  0  0  0  0  0  0  0  0
  -17.7820   36.2280  -22.5043 O   0  0  0  0  0  0  0  0  0  0  0  0
  -17.0522   36.1398  -23.7776 C   0  0  0  0  0  0  0  0  0  0  0  0
  -17.0656   35.0115  -24.5074 C   0  0  0  0  0  0  0  0  0  0  0  0
  -18.8525   36.3857  -20.3470 O   0  0  0  0  0  0  0  0  0  0  0  0
  -17.8570   38.3649  -21.4676 O   0  0  0  0  0  0  0  0  0  0  0  0
  -15.9073   34.3431  -24.8170 C   0  0  0  0  0  0  0  0  0  0  0  0
  -18.0820   34.5572  -25.0777 O   0  0  0  0  0  0  0  0  0  0  0  0
  -14.9711   34.9518  -25.4657 O   0  0  0  0  0  0  0  0  0  0  0  0
  -16.1424   33.0096  -25.5705 C   0  0  0  0  0  0  0  0  0  0  0  0
  -16.8504   33.0031  -26.6685 C   0  0  0  0  0  0  0  0  0  0  0  0
  -16.1543   33.7013  -27.7555 N   0  0  0  0  0  0  0  0  0  0  0  0
  -16.2950   31.8306  -24.7544 C   0  0  0  0  0  0  0  0  0  0  0  0
  -17.6254   31.5844  -24.1800 C   0  0  0  0  0  0  0  0  0  0  0  0
  -15.4427   31.8305  -23.5081 C   0  0  0  0  0  0  0  0  0  0  0  0
  -18.6940   31.9503  -24.7829 O   0  0  0  0  0  0  0  0  0  0  0  0
  -17.9053   31.0805  -22.9641 N   0  0  0  0  0  0  0  0  0  0  0  0
  -15.7534   30.7750  -22.6127 C   0  0  0  0  0  0  0  0  0  0  0  0
  -19.2579   30.8639  -22.5355 O   0  0  0  0  0  0  0  0  0  0  0  0
  -16.9616   30.6891  -22.1035 C   0  0  0  0  0  0  0  0  0  0  0  0
  -14.8762   29.8228  -22.2705 O   0  0  0  0  0  0  0  0  0  0  0  0
  1  2  1  0
  2  3  1  0
  3  4  1  0
  4  5  1  0
  2  6  2  0
  2  7  1  0
  5  8  1  0
  5  9  2  0
  8 10  1  0
  8 11  1  0
 11 12  1  0
 12 13  1  0
 11 14  1  0
 14 15  1  0
 14 16  1  0
 15 17  2  0
 15 18  1  0
 16 19  1  0
 18 20  1  0
 18 21  1  0
 19 21  1  0
 19 22  2  0
M  END
