
     RDKit          3D

 22 24  0  0  0  0  0  0  0  0999 V2000
  -18.2926   30.0455  -22.6046 O   0  0  0  0  0  0  0  0  0  0  0  0
  -17.3348   30.7058  -22.9484 C   0  0  0  0  0  0  0  0  0  0  0  0
  -15.9973   30.4232  -22.8762 C   0  0  0  0  0  0  0  0  0  0  0  0
  -17.6952   31.9462  -23.6712 N   0  0  0  0  0  0  0  0  0  0  0  0
  -15.5910   29.2113  -22.1676 C   0  0  0  0  0  0  0  0  0  0  0  0
  -15.0266   31.2053  -23.4011 C   0  0  0  0  0  0  0  0  0  0  0  0
  -19.1096   32.2908  -23.8899 C   0  0  0  0  0  0  0  0  0  0  0  0
  -19.3770   32.1451  -25.3644 C   0  0  0  0  0  0  0  0  0  0  0  0
  -15.3462   32.2725  -24.1299 N   0  0  0  0  0  0  0  0  0  0  0  0
  -16.6744   32.6516  -24.2408 C   0  0  0  0  0  0  0  0  0  0  0  0
  -16.9866   33.9793  -24.7987 C   0  0  0  0  0  0  0  0  0  0  0  0
  -15.6033   29.1167  -20.9970 O   0  0  0  0  0  0  0  0  0  0  0  0
  -15.3310   28.0372  -22.7891 O   0  0  0  0  0  0  0  0  0  0  0  0
  -17.3216   33.7838  -26.2593 C   0  0  0  0  0  0  0  0  0  0  0  0
  -16.7000   35.1454  -24.2668 C   0  0  0  0  0  0  0  0  0  0  0  0
  -17.0555   36.1522  -24.8204 N   0  0  0  0  0  0  0  0  0  0  0  0
  -18.6743   33.2956  -26.2460 C   0  0  0  0  0  0  0  0  0  0  0  0
  -17.0489   35.0291  -26.9478 C   0  0  0  0  0  0  0  0  0  0  0  0
  -15.9529   35.2397  -23.0384 O   0  0  0  0  0  0  0  0  0  0  0  0
  -17.1417   36.2088  -26.2601 C   0  0  0  0  0  0  0  0  0  0  0  0
  -16.7741   34.9395  -28.2641 C   0  0  0  0  0  0  0  0  0  0  0  0
  -15.7248   35.4246  -28.7382 O   0  0  0  0  0  0  0  0  0  0  0  0
  1  2  2  0
  2  3  1  0
  2  4  1  0
  3  5  1  0
  3  6  2  0
  4  7  1  0
  7  8  1  0
  6  9  1  0
  4 10  1  0
  9 10  2  0
 10 11  1  0
  5 12  1  0
  5 13  2  0
 11 14  1  0
 11 15  2  0
 15 16  1  0
  8 17  1  0
 14 17  1  0
 14 18  1  0
 15 19  1  0
 16 20  2  0
 18 20  1  0
 18 21  2  3
 21 22  1  0
M  END
