
     RDKit          3D

 22 23  0  0  0  0  0  0  0  0999 V2000
  -16.3124   34.7008  -27.8652 C   0  0  0  0  0  0  0  0  0  0  0  0
  -16.4306   35.2041  -26.6408 C   0  0  0  0  0  0  0  0  0  0  0  0
  -16.5138   33.4839  -27.9147 C   0  0  0  0  0  0  0  0  0  0  0  0
  -16.8962   34.5142  -25.5282 C   0  0  0  0  0  0  0  0  0  0  0  0
  -17.0463   35.1963  -24.2208 C   0  0  0  0  0  0  0  0  0  0  0  0
  -17.2189   33.2043  -25.6699 C   0  0  0  0  0  0  0  0  0  0  0  0
  -16.2519   36.0762  -23.8482 O   0  0  0  0  0  0  0  0  0  0  0  0
  -18.0818   34.8301  -23.5060 N   0  0  0  0  0  0  0  0  0  0  0  0
  -16.9430   32.6065  -26.9413 C   0  0  0  0  0  0  0  0  0  0  0  0
  -18.3752   35.3901  -22.1531 C   0  0  0  0  0  0  0  0  0  0  0  0
  -19.5146   35.7886  -21.9822 C   0  0  0  0  0  0  0  0  0  0  0  0
  -20.5120   35.1815  -22.4996 O   0  0  0  0  0  0  0  0  0  0  0  0
  -19.7423   36.8596  -21.2138 O   0  0  0  0  0  0  0  0  0  0  0  0
  -17.8619   32.3055  -24.6493 C   0  0  0  0  0  0  0  0  0  0  0  0
  -16.9624   31.5763  -23.8894 C   0  0  0  0  0  0  0  0  0  0  0  0
  -17.3691   30.4966  -23.0918 C   0  0  0  0  0  0  0  0  0  0  0  0
  -18.7585   30.4926  -23.0131 N   0  0  0  0  0  0  0  0  0  0  0  0
  -16.6141   29.6757  -22.5494 N   0  0  0  0  0  0  0  0  0  0  0  0
  -15.6333   31.8679  -23.7680 C   0  0  0  0  0  0  0  0  0  0  0  0
  -14.9926   32.9620  -24.4580 O   0  0  0  0  0  0  0  0  0  0  0  0
  -14.7134   30.9200  -23.1579 C   0  0  0  0  0  0  0  0  0  0  0  0
  -15.2318   29.9410  -22.5766 C   0  0  0  0  0  0  0  0  0  0  0  0
  1  2  1  0
  1  3  2  0
  2  4  2  0
  4  5  1  0
  4  6  1  0
  5  7  2  0
  5  8  1  0
  3  9  1  0
  6  9  2  0
  8 10  1  0
 10 11  1  0
 11 12  2  0
 11 13  1  0
  6 14  1  0
 14 15  1  0
 15 16  1  0
 16 17  1  0
 16 18  2  0
 15 19  2  0
 19 20  1  0
 19 21  1  0
 18 22  1  0
 21 22  2  0
M  END
