
     RDKit          3D

 14 14  0  0  0  0  0  0  0  0999 V2000
  -19.3446   30.8550  -22.3508 O   0  0  0  0  0  0  0  0  0  0  0  0
  -18.7300   31.9008  -22.5517 C   0  0  0  0  0  0  0  0  0  0  0  0
  -17.8540   31.8182  -23.4464 C   0  0  0  0  0  0  0  0  0  0  0  0
  -19.3128   33.0394  -21.9933 O   0  0  0  0  0  0  0  0  0  0  0  0
  -17.6027   32.9491  -24.3442 C   0  0  0  0  0  0  0  0  0  0  0  0
  -16.6313   31.0997  -23.1049 N   0  0  0  0  0  0  0  0  0  0  0  0
  -16.6057   33.7145  -24.3308 C   0  0  0  0  0  0  0  0  0  0  0  0
  -18.7856   33.3475  -25.1864 C   0  0  0  0  0  0  0  0  0  0  0  0
  -18.7486   34.4305  -26.0247 C   0  0  0  0  0  0  0  0  0  0  0  0
  -16.6013   29.8664  -22.5617 C   0  0  0  0  0  0  0  0  0  0  0  0
  -15.2235   29.3782  -22.1764 C   0  0  0  0  0  0  0  0  0  0  0  0
  -16.4136   34.8255  -25.1749 C   0  0  0  0  0  0  0  0  0  0  0  0
  -17.3760   35.1442  -26.0840 C   0  0  0  0  0  0  0  0  0  0  0  0
  -15.0435   27.9300  -22.3558 C   0  0  0  0  0  0  0  0  0  0  0  0
  1  2  1  0
  2  3  1  0
  2  4  2  0
  3  5  1  0
  3  6  1  0
  5  7  2  0
  5  8  1  0
  8  9  2  0
  6 10  1  0
 10 11  1  0
  7 12  1  0
  9 13  1  0
 12 13  2  0
 11 14  1  0
M  END
