
     RDKit          3D

 22 21  0  0  0  0  0  0  0  0999 V2000
  -16.3474   36.4961  -20.6363 O   0  0  0  0  0  0  0  0  0  0  0  0
  -17.8080   37.0308  -20.6429 P   0  0  0  0  0  0  0  0  0  0  0  0
  -18.6671   36.4180  -19.8047 O   0  0  0  0  0  0  0  0  0  0  0  0
  -18.3069   36.4921  -22.1802 O   0  0  0  0  0  0  0  0  0  0  0  0
  -17.8249   38.4722  -20.5096 O   0  0  0  0  0  0  0  0  0  0  0  0
  -17.5243   35.7189  -23.0990 P   0  0  0  0  0  0  0  0  0  0  0  0
  -17.9841   34.4230  -23.2706 O   0  0  0  0  0  0  0  0  0  0  0  0
  -17.4439   33.3189  -24.0671 C   0  0  0  0  0  0  0  0  0  0  0  0
  -18.0965   32.0919  -23.7460 C   0  0  0  0  0  0  0  0  0  0  0  0
  -17.2156   31.0502  -23.2604 C   0  0  0  0  0  0  0  0  0  0  0  0
  -17.3678   36.5296  -24.4063 O   0  0  0  0  0  0  0  0  0  0  0  0
  -16.0072   35.5034  -22.6427 O   0  0  0  0  0  0  0  0  0  0  0  0
  -19.1327   32.1390  -22.6737 O   0  0  0  0  0  0  0  0  0  0  0  0
  -17.5636   29.9755  -22.5648 O   0  0  0  0  0  0  0  0  0  0  0  0
  -15.9216   31.2120  -23.3377 O   0  0  0  0  0  0  0  0  0  0  0  0
  -17.6444   33.7061  -25.5331 C   0  0  0  0  0  0  0  0  0  0  0  0
  -14.8892   30.2343  -22.9234 C   0  0  0  0  0  0  0  0  0  0  0  0
  -18.5898   33.0717  -26.1001 O   0  0  0  0  0  0  0  0  0  0  0  0
  -16.2986   33.4783  -26.1852 C   0  0  0  0  0  0  0  0  0  0  0  0
  -16.3903   33.9448  -27.5185 C   0  0  0  0  0  0  0  0  0  0  0  0
  -16.1658   35.2189  -27.7562 O   0  0  0  0  0  0  0  0  0  0  0  0
  -15.4639   34.2258  -25.2859 O   0  0  0  0  0  0  0  0  0  0  0  0
  1  2  1  0
  2  3  1  0
  2  4  1  0
  2  5  2  0
  4  6  1  0
  6  7  1  0
  7  8  1  0
  8  9  1  0
  9 10  1  0
  6 11  2  0
  6 12  1  0
  9 13  1  0
 10 14  2  0
 10 15  1  0
  8 16  1  0
 15 17  1  0
 16 18  1  0
 16 19  1  0
 19 20  1  0
 20 21  1  0
 19 22  1  0
M  END
