
     RDKit          3D

 14 13  0  0  0  0  0  0  0  0999 V2000
  -18.2926   30.0455  -22.6046 O   0  0  0  0  0  0  0  0  0  0  0  0
  -17.0712   30.2332  -22.7311 C   0  0  0  0  0  0  0  0  0  0  0  0
  -16.6776   31.3968  -23.2780 N   0  0  0  0  0  0  0  0  0  0  0  0
  -16.0567   29.3682  -22.0229 C   0  0  0  0  0  0  0  0  0  0  0  0
  -17.5392   32.2759  -24.0607 C   0  0  0  0  0  0  0  0  0  0  0  0
  -16.7431   33.1609  -24.9430 C   0  0  0  0  0  0  0  0  0  0  0  0
  -15.4729   28.4389  -22.8126 C   0  0  0  0  0  0  0  0  0  0  0  0
  -17.4015   33.8701  -25.9354 C   0  0  0  0  0  0  0  0  0  0  0  0
  -15.4350   33.4914  -24.5555 O   0  0  0  0  0  0  0  0  0  0  0  0
  -17.6154   35.1964  -25.7776 C   0  0  0  0  0  0  0  0  0  0  0  0
  -14.6961   27.5348  -22.1305 O   0  0  0  0  0  0  0  0  0  0  0  0
  -16.6576   33.7132  -27.3260 C   0  0  0  0  0  0  0  0  0  0  0  0
  -18.7860   33.2890  -26.1091 O   0  0  0  0  0  0  0  0  0  0  0  0
  -16.2032   34.7390  -27.9653 O   0  0  0  0  0  0  0  0  0  0  0  0
  1  2  2  0
  2  3  1  0
  2  4  1  0
  3  5  1  0
  5  6  1  0
  4  7  1  0
  6  8  1  0
  6  9  2  0
  8 10  1  0
  7 11  1  0
  8 12  1  0
  8 13  1  0
 12 14  1  0
M  END
