
     RDKit          3D

 22 22  0  0  0  0  0  0  0  0999 V2000
  -16.3474   36.4961  -20.6363 O   0  0  0  0  0  0  0  0  0  0  0  0
  -17.7051   36.9438  -21.1925 P   0  0  0  0  0  0  0  0  0  0  0  0
  -17.7820   36.2280  -22.5043 O   0  0  0  0  0  0  0  0  0  0  0  0
  -18.9026   36.5696  -20.3381 O   0  0  0  0  0  0  0  0  0  0  0  0
  -17.4100   34.9962  -23.0425 C   0  0  0  0  0  0  0  0  0  0  0  0
  -17.6693   34.8389  -24.3852 C   0  0  0  0  0  0  0  0  0  0  0  0
  -17.7084   38.4079  -21.3099 O   0  0  0  0  0  0  0  0  0  0  0  0
  -16.4266   34.8495  -25.1541 C   0  0  0  0  0  0  0  0  0  0  0  0
  -18.4901   33.5791  -24.4618 O   0  0  0  0  0  0  0  0  0  0  0  0
  -16.5429   35.0349  -26.5134 C   0  0  0  0  0  0  0  0  0  0  0  0
  -15.5330   33.8685  -24.7994 O   0  0  0  0  0  0  0  0  0  0  0  0
  -18.1906   32.6624  -25.3346 C   0  0  0  0  0  0  0  0  0  0  0  0
  -16.4725   33.7259  -27.2406 C   0  0  0  0  0  0  0  0  0  0  0  0
  -17.5846   32.7960  -26.7200 C   0  0  0  0  0  0  0  0  0  0  0  0
  -18.3764   31.2503  -24.9737 C   0  0  0  0  0  0  0  0  0  0  0  0
  -18.0470   31.0675  -23.5237 C   0  0  0  0  0  0  0  0  0  0  0  0
  -15.3811   35.6387  -27.0895 O   0  0  0  0  0  0  0  0  0  0  0  0
  -16.8467   30.7567  -23.1203 C   0  0  0  0  0  0  0  0  0  0  0  0
  -16.7181   33.9368  -28.6469 O   0  0  0  0  0  0  0  0  0  0  0  0
  -15.7528   31.4309  -23.4550 O   0  0  0  0  0  0  0  0  0  0  0  0
  -16.6404   29.8583  -22.1385 N   0  0  0  0  0  0  0  0  0  0  0  0
  -15.6016   28.9568  -22.2900 C   0  0  0  0  0  0  0  0  0  0  0  0
  1  2  1  0
  2  3  1  0
  2  4  1  0
  3  5  1  0
  5  6  1  0
  2  7  2  0
  6  8  1  0
  6  9  1  0
  8 10  1  0
  8 11  1  0
  9 12  1  0
 10 13  1  0
 12 14  2  0
 13 14  1  0
 12 15  1  0
 15 16  1  0
 10 17  1  0
 16 18  1  0
 13 19  1  0
 18 20  2  0
 18 21  1  0
 21 22  1  0
M  END
