
     RDKit          3D

 22 22  0  0  0  0  0  0  0  0999 V2000
  -14.7229   35.1078  -25.3805 O   0  0  0  0  0  0  0  0  0  0  0  0
  -16.0591   34.8928  -25.1531 C   0  0  0  0  0  0  0  0  0  0  0  0
  -16.8422   35.0703  -26.3126 C   0  0  0  0  0  0  0  0  0  0  0  0
  -16.6319   35.5753  -24.0465 C   0  0  0  0  0  0  0  0  0  0  0  0
  -17.7266   35.2726  -23.6432 O   0  0  0  0  0  0  0  0  0  0  0  0
  -16.2310   35.5480  -27.4050 O   0  0  0  0  0  0  0  0  0  0  0  0
  -16.1188   36.6370  -23.6282 O   0  0  0  0  0  0  0  0  0  0  0  0
  -17.3500   33.5738  -26.8222 C   0  0  0  0  0  0  0  0  0  0  0  0
  -16.5793   32.6616  -26.1617 C   0  0  0  0  0  0  0  0  0  0  0  0
  -17.1044   33.3107  -28.2991 O   0  0  0  0  0  0  0  0  0  0  0  0
  -16.3446   33.3482  -24.8287 C   0  0  0  0  0  0  0  0  0  0  0  0
  -17.1609   31.4355  -25.9587 O   0  0  0  0  0  0  0  0  0  0  0  0
  -17.4318   32.9155  -24.0326 O   0  0  0  0  0  0  0  0  0  0  0  0
  -17.3748   31.7534  -23.3922 C   0  0  0  0  0  0  0  0  0  0  0  0
  -18.7055   31.1776  -23.1159 C   0  0  0  0  0  0  0  0  0  0  0  0
  -19.6851   32.0643  -23.1008 O   0  0  0  0  0  0  0  0  0  0  0  0
  -18.8274   30.0460  -22.8862 O   0  0  0  0  0  0  0  0  0  0  0  0
  -16.3570   30.8897  -23.6599 O   0  0  0  0  0  0  0  0  0  0  0  0
  -15.7998   30.0714  -22.5779 C   0  0  0  0  0  0  0  0  0  0  0  0
  -15.3942   28.8782  -22.9088 C   0  0  0  0  0  0  0  0  0  0  0  0
  -14.5573   28.6260  -23.5655 O   0  0  0  0  0  0  0  0  0  0  0  0
  -15.9615   27.8970  -22.0727 O   0  0  0  0  0  0  0  0  0  0  0  0
  1  2  1  0
  2  3  1  0
  2  4  1  0
  4  5  2  0
  3  6  1  0
  4  7  1  0
  3  8  1  0
  8  9  1  0
  8 10  1  0
  2 11  1  0
  9 11  1  0
  9 12  1  0
 11 13  1  0
 13 14  1  0
 14 15  1  0
 15 16  1  0
 15 17  2  0
 14 18  1  0
 18 19  1  0
 19 20  1  0
 20 21  2  0
 20 22  1  0
M  END
