
     RDKit          3D

 22 23  0  0  0  0  0  0  0  0999 V2000
  -14.5641   27.9429  -22.9616 O   0  0  0  0  0  0  0  0  0  0  0  0
  -15.4945   28.7790  -22.3161 C   0  0  0  0  0  0  0  0  0  0  0  0
  -15.4639   30.1098  -22.6289 C   0  0  0  0  0  0  0  0  0  0  0  0
  -16.8261   30.7553  -22.7022 C   0  0  0  0  0  0  0  0  0  0  0  0
  -16.9667   31.8001  -23.5852 C   0  0  0  0  0  0  0  0  0  0  0  0
  -17.8289   29.7021  -23.0014 O   0  0  0  0  0  0  0  0  0  0  0  0
  -15.9278   32.0980  -24.3612 O   0  0  0  0  0  0  0  0  0  0  0  0
  -18.1237   32.4061  -23.7120 N   0  0  0  0  0  0  0  0  0  0  0  0
  -18.3888   33.4455  -24.6997 C   0  0  0  0  0  0  0  0  0  0  0  0
  -17.9673   34.6327  -24.2023 C   0  0  0  0  0  0  0  0  0  0  0  0
  -18.7312   33.1565  -25.9700 C   0  0  0  0  0  0  0  0  0  0  0  0
  -19.1988   31.8542  -26.4235 C   0  0  0  0  0  0  0  0  0  0  0  0
  -18.5732   34.3097  -26.8481 C   0  0  0  0  0  0  0  0  0  0  0  0
  -18.9036   33.9817  -28.2459 F   0  0  0  0  0  0  0  0  0  0  0  0
  -17.6017   34.9028  -22.8112 O   0  0  0  0  0  0  0  0  0  0  0  0
  -16.7871   36.1653  -22.3604 P   0  0  0  0  0  0  0  0  0  0  0  0
  -17.8034   35.7387  -25.0865 C   0  0  0  0  0  0  0  0  0  0  0  0
  -17.4083   37.0566  -24.6459 C   0  0  0  0  0  0  0  0  0  0  0  0
  -18.1091   35.5199  -26.4963 C   0  0  0  0  0  0  0  0  0  0  0  0
  -17.3258   36.6584  -21.0578 O   0  0  0  0  0  0  0  0  0  0  0  0
  -17.6146   37.2699  -23.3427 O   0  0  0  0  0  0  0  0  0  0  0  0
  -15.6024   35.7895  -22.4289 O   0  0  0  0  0  0  0  0  0  0  0  0
  1  2  1  0
  2  3  1  0
  3  4  1  0
  4  5  1  0
  4  6  1  0
  5  7  2  0
  5  8  1  0
  8  9  1  0
  9 10  1  0
  9 11  2  0
 11 12  1  0
 11 13  1  0
 13 14  1  0
 10 15  1  0
 15 16  1  0
 10 17  2  0
 17 18  1  0
 13 19  2  0
 17 19  1  0
 16 20  1  0
 16 21  1  0
 18 21  1  0
 16 22  2  0
M  END
