
     RDKit          3D

 14 13  0  0  0  0  0  0  0  0999 V2000
  -16.3898   37.6991  -22.6971 O   0  0  0  0  0  0  0  0  0  0  0  0
  -17.2647   36.8296  -21.9599 P   0  0  0  0  0  0  0  0  0  0  0  0
  -18.6097   37.3624  -21.9255 O   0  0  0  0  0  0  0  0  0  0  0  0
  -17.4502   35.4442  -22.7352 O   0  0  0  0  0  0  0  0  0  0  0  0
  -17.0834   36.6406  -20.4085 O   0  0  0  0  0  0  0  0  0  0  0  0
  -17.5804   35.2952  -24.1117 C   0  0  0  0  0  0  0  0  0  0  0  0
  -17.1958   33.9379  -24.5146 C   0  0  0  0  0  0  0  0  0  0  0  0
  -18.0458   33.0242  -24.2365 N   0  0  0  0  0  0  0  0  0  0  0  0
  -17.6351   31.6596  -24.1799 C   0  0  0  0  0  0  0  0  0  0  0  0
  -18.6427   30.9165  -23.5097 C   0  0  0  0  0  0  0  0  0  0  0  0
  -16.0333   33.7413  -25.2671 O   0  0  0  0  0  0  0  0  0  0  0  0
  -19.5991   31.6998  -22.9220 O   0  0  0  0  0  0  0  0  0  0  0  0
  -16.2763   31.5424  -23.4956 C   0  0  0  0  0  0  0  0  0  0  0  0
  -15.9095   30.1330  -23.2339 O   0  0  0  0  0  0  0  0  0  0  0  0
  1  2  2  0
  2  3  1  0
  2  4  1  0
  2  5  1  0
  4  6  1  0
  6  7  1  0
  7  8  1  0
  8  9  1  0
  9 10  1  0
  7 11  2  0
 10 12  1  0
  9 13  1  0
 13 14  1  0
M  END
