
     RDKit          3D

 14 14  0  0  0  0  0  0  0  0999 V2000
  -18.9141   30.8564  -22.8484 O   0  0  0  0  0  0  0  0  0  0  0  0
  -17.7244   31.2654  -23.2216 C   0  0  0  0  0  0  0  0  0  0  0  0
  -17.7593   32.4159  -23.9942 N   0  0  0  0  0  0  0  0  0  0  0  0
  -16.5537   32.9211  -24.5809 C   0  0  0  0  0  0  0  0  0  0  0  0
  -15.5092   32.1311  -24.5579 N   0  0  0  0  0  0  0  0  0  0  0  0
  -16.5440   30.5755  -23.1003 C   0  0  0  0  0  0  0  0  0  0  0  0
  -15.3965   31.0919  -23.7347 C   0  0  0  0  0  0  0  0  0  0  0  0
  -16.5735   34.1005  -25.4902 C   0  0  0  0  0  0  0  0  0  0  0  0
  -16.3926   29.4901  -22.1406 N   0  0  0  0  0  0  0  0  0  0  0  0
  -15.4664   28.5806  -22.4906 O   0  0  0  0  0  0  0  0  0  0  0  0
  -16.4487   33.8727  -26.9014 C   0  0  0  0  0  0  0  0  0  0  0  0
  -17.7235   34.9416  -25.2358 C   0  0  0  0  0  0  0  0  0  0  0  0
  -16.4596   34.9951  -27.7132 C   0  0  0  0  0  0  0  0  0  0  0  0
  -17.4310   36.1496  -24.5129 N   0  0  0  0  0  0  0  0  0  0  0  0
  1  2  2  0
  2  3  1  0
  3  4  1  0
  4  5  2  0
  2  6  1  0
  5  7  1  0
  6  7  2  0
  4  8  1  0
  6  9  1  0
  9 10  1  0
  8 11  1  0
  8 12  1  0
 11 13  1  0
 12 14  1  0
M  END
