
     RDKit          3D

 23 24  0  0  0  0  0  0  0  0999 V2000
  -16.3474   36.4961  -20.6363 O   0  0  0  0  0  0  0  0  0  0  0  0
  -17.7051   36.9438  -21.1925 P   0  0  0  0  0  0  0  0  0  0  0  0
  -17.7820   36.2280  -22.5043 O   0  0  0  0  0  0  0  0  0  0  0  0
  -18.8331   36.3525  -20.2709 O   0  0  0  0  0  0  0  0  0  0  0  0
  -17.3241   35.0623  -23.0663 C   0  0  0  0  0  0  0  0  0  0  0  0
  -17.8513   38.3874  -21.1484 O   0  0  0  0  0  0  0  0  0  0  0  0
  -17.4787   34.8959  -24.4021 C   0  0  0  0  0  0  0  0  0  0  0  0
  -16.2007   34.8569  -25.0976 C   0  0  0  0  0  0  0  0  0  0  0  0
  -18.2721   33.5876  -24.6039 O   0  0  0  0  0  0  0  0  0  0  0  0
  -16.3371   33.8988  -26.3147 C   0  0  0  0  0  0  0  0  0  0  0  0
  -15.1305   34.1347  -24.6435 O   0  0  0  0  0  0  0  0  0  0  0  0
  -17.7312   33.0782  -25.8573 C   0  0  0  0  0  0  0  0  0  0  0  0
  -17.6552   31.6459  -25.4175 C   0  0  0  0  0  0  0  0  0  0  0  0
  -16.6618   34.6467  -27.5585 C   0  0  0  0  0  0  0  0  0  0  0  0
  -17.8668   31.5456  -24.0507 N   0  0  0  0  0  0  0  0  0  0  0  0
  -15.8876   33.9604  -28.5889 O   0  0  0  0  0  0  0  0  0  0  0  0
  -18.9467   31.4056  -23.4222 C   0  0  0  0  0  0  0  0  0  0  0  0
  -16.5653   31.1541  -23.4238 C   0  0  0  0  0  0  0  0  0  0  0  0
  -15.4740   31.6470  -23.7414 O   0  0  0  0  0  0  0  0  0  0  0  0
  -19.9234   31.8284  -23.9731 O   0  0  0  0  0  0  0  0  0  0  0  0
  -18.9440   30.7625  -22.1624 N   0  0  0  0  0  0  0  0  0  0  0  0
  -16.6838   30.4831  -22.2000 N   0  0  0  0  0  0  0  0  0  0  0  0
  -17.8569   30.3792  -21.6179 C   0  0  0  0  0  0  0  0  0  0  0  0
  1  2  1  0
  2  3  1  0
  2  4  1  0
  3  5  1  0
  2  6  2  0
  5  7  1  0
  7  8  1  0
  7  9  1  0
  8 10  1  0
  8 11  1  0
  9 12  1  0
 10 12  1  0
 12 13  1  0
 10 14  1  0
 13 15  1  0
 14 16  1  0
 15 17  1  0
 15 18  1  0
 18 19  2  0
 17 20  2  0
 17 21  1  0
 18 22  1  0
 21 23  1  0
 22 23  2  0
M  END
