
     RDKit          3D

 14 14  0  0  0  0  0  0  0  0999 V2000
  -14.7229   35.1078  -25.3805 O   0  0  0  0  0  0  0  0  0  0  0  0
  -15.8786   34.8915  -24.8290 C   0  0  0  0  0  0  0  0  0  0  0  0
  -16.6856   33.9280  -25.4996 C   0  0  0  0  0  0  0  0  0  0  0  0
  -16.3685   35.4458  -23.8328 O   0  0  0  0  0  0  0  0  0  0  0  0
  -16.7647   34.1886  -26.9428 C   0  0  0  0  0  0  0  0  0  0  0  0
  -17.4276   32.8557  -24.9727 C   0  0  0  0  0  0  0  0  0  0  0  0
  -18.0467   32.0864  -26.0625 C   0  0  0  0  0  0  0  0  0  0  0  0
  -17.4126   32.3818  -23.5999 C   0  0  0  0  0  0  0  0  0  0  0  0
  -15.8009   34.2900  -27.7299 O   0  0  0  0  0  0  0  0  0  0  0  0
  -17.0631   30.9913  -23.4752 N   0  0  0  0  0  0  0  0  0  0  0  0
  -17.6089   32.8139  -27.3258 C   0  0  0  0  0  0  0  0  0  0  0  0
  -18.1169   30.1835  -23.1047 O   0  0  0  0  0  0  0  0  0  0  0  0
  -15.8846   30.4878  -22.9693 C   0  0  0  0  0  0  0  0  0  0  0  0
  -15.7508   29.2811  -22.3494 C   0  0  0  0  0  0  0  0  0  0  0  0
  1  2  1  0
  2  3  1  0
  2  4  2  0
  3  5  1  0
  3  6  2  0
  6  7  1  0
  6  8  1  0
  5  9  1  0
  8 10  1  0
  5 11  1  0
  7 11  1  0
 10 12  1  0
 10 13  1  0
 13 14  1  0
M  END
