
     RDKit          3D

 23 23  0  0  0  0  0  0  0  0999 V2000
  -16.3474   36.4961  -20.6363 O   0  0  0  0  0  0  0  0  0  0  0  0
  -17.7051   36.9438  -21.1925 P   0  0  0  0  0  0  0  0  0  0  0  0
  -17.7820   36.2280  -22.5043 O   0  0  0  0  0  0  0  0  0  0  0  0
  -18.9026   36.5696  -20.3381 O   0  0  0  0  0  0  0  0  0  0  0  0
  -17.4100   34.9962  -23.0425 C   0  0  0  0  0  0  0  0  0  0  0  0
  -17.6693   34.8389  -24.3852 C   0  0  0  0  0  0  0  0  0  0  0  0
  -17.7084   38.4079  -21.3099 O   0  0  0  0  0  0  0  0  0  0  0  0
  -16.4266   34.8495  -25.1541 C   0  0  0  0  0  0  0  0  0  0  0  0
  -18.4901   33.5791  -24.4618 O   0  0  0  0  0  0  0  0  0  0  0  0
  -16.5429   35.0349  -26.5134 C   0  0  0  0  0  0  0  0  0  0  0  0
  -15.5330   33.8685  -24.7994 O   0  0  0  0  0  0  0  0  0  0  0  0
  -18.1906   32.6624  -25.3346 C   0  0  0  0  0  0  0  0  0  0  0  0
  -16.4725   33.7259  -27.2406 C   0  0  0  0  0  0  0  0  0  0  0  0
  -17.5846   32.7960  -26.7200 C   0  0  0  0  0  0  0  0  0  0  0  0
  -16.6878   33.9712  -28.6836 O   0  0  0  0  0  0  0  0  0  0  0  0
  -18.9342   31.4480  -25.1499 C   0  0  0  0  0  0  0  0  0  0  0  0
  -18.5642   30.9701  -23.7875 C   0  0  0  0  0  0  0  0  0  0  0  0
  -17.6602   35.8602  -26.8470 O   0  0  0  0  0  0  0  0  0  0  0  0
  -19.4101   30.5502  -22.8970 O   0  0  0  0  0  0  0  0  0  0  0  0
  -17.2638   30.8258  -23.3081 C   0  0  0  0  0  0  0  0  0  0  0  0
  -17.0059   29.9551  -22.2415 O   0  0  0  0  0  0  0  0  0  0  0  0
  -15.5432   29.9168  -21.9626 C   0  0  0  0  0  0  0  0  0  0  0  0
  -15.1440   28.4594  -22.2637 C   0  0  0  0  0  0  0  0  0  0  0  0
  1  2  1  0
  2  3  1  0
  2  4  1  0
  3  5  1  0
  5  6  1  0
  2  7  2  0
  6  8  1  0
  6  9  1  0
  8 10  1  0
  8 11  1  0
  9 12  1  0
 10 13  1  0
 12 14  2  0
 13 14  1  0
 13 15  1  0
 12 16  1  0
 16 17  1  0
 10 18  1  0
 17 19  1  0
 17 20  2  3
 20 21  1  0
 21 22  1  0
 22 23  1  0
M  END
