
     RDKit          3D

 23 24  0  0  0  0  0  0  0  0999 V2000
  -15.9333   33.3737  -28.3999 O   0  0  0  0  0  0  0  0  0  0  0  0
  -16.7726   33.1245  -27.5037 C   0  0  0  0  0  0  0  0  0  0  0  0
  -17.4592   34.0831  -26.9777 C   0  0  0  0  0  0  0  0  0  0  0  0
  -17.7255   33.9447  -25.5308 C   0  0  0  0  0  0  0  0  0  0  0  0
  -17.0540   34.8435  -24.7937 C   0  0  0  0  0  0  0  0  0  0  0  0
  -17.4287   35.0134  -23.5590 C   0  0  0  0  0  0  0  0  0  0  0  0
  -16.9589   36.2321  -25.4748 O   0  0  0  0  0  0  0  0  0  0  0  0
  -18.0310   33.9794  -23.0776 O   0  0  0  0  0  0  0  0  0  0  0  0
  -18.1881   32.9842  -24.2266 C   0  0  0  0  0  0  0  0  0  0  0  0
  -17.8686   36.1872  -23.0803 O   0  0  0  0  0  0  0  0  0  0  0  0
  -18.9909   36.4976  -22.0106 P   0  0  0  0  0  0  0  0  0  0  0  0
  -17.6560   31.7048  -24.1109 C   0  0  0  0  0  0  0  0  0  0  0  0
  -18.5203   30.8416  -23.5562 C   0  0  0  0  0  0  0  0  0  0  0  0
  -18.0691   30.0972  -22.4274 O   0  0  0  0  0  0  0  0  0  0  0  0
  -18.5151   37.2617  -20.9700 O   0  0  0  0  0  0  0  0  0  0  0  0
  -16.7308   30.3962  -22.1083 C   0  0  0  0  0  0  0  0  0  0  0  0
  -15.8420   29.1411  -22.1052 C   0  0  0  0  0  0  0  0  0  0  0  0
  -14.7850   29.0451  -22.4723 O   0  0  0  0  0  0  0  0  0  0  0  0
  -16.5587   31.7321  -23.1178 O   0  0  0  0  0  0  0  0  0  0  0  0
  -16.5325   28.1926  -21.6522 O   0  0  0  0  0  0  0  0  0  0  0  0
  -19.8067   35.6846  -21.9836 O   0  0  0  0  0  0  0  0  0  0  0  0
  -19.5264   37.7442  -23.0719 O   0  0  0  0  0  0  0  0  0  0  0  0
  -16.8372   31.9316  -27.1783 O   0  0  0  0  0  0  0  0  0  0  0  0
  1  2  1  0
  2  3  1  0
  3  4  1  0
  4  5  1  0
  5  6  1  0
  5  7  1  0
  6  8  1  0
  4  9  1  0
  8  9  1  0
  6 10  1  0
 10 11  1  0
  9 12  1  0
 12 13  1  0
 13 14  1  0
 11 15  1  0
 14 16  1  0
 16 17  1  0
 17 18  2  0
 12 19  1  0
 16 19  1  0
 17 20  1  0
 11 21  2  0
 11 22  1  0
  2 23  2  0
M  END
