
     RDKit          3D

 23 24  0  0  0  0  0  0  0  0999 V2000
  -16.3474   36.4961  -20.6363 O   0  0  0  0  0  0  0  0  0  0  0  0
  -17.7051   36.9438  -21.1925 P   0  0  0  0  0  0  0  0  0  0  0  0
  -17.7820   36.2280  -22.5043 O   0  0  0  0  0  0  0  0  0  0  0  0
  -18.8331   36.3525  -20.2709 O   0  0  0  0  0  0  0  0  0  0  0  0
  -17.8258   38.4225  -21.1273 O   0  0  0  0  0  0  0  0  0  0  0  0
  -16.8979   36.1997  -23.6560 C   0  0  0  0  0  0  0  0  0  0  0  0
  -17.2657   35.5258  -24.7559 C   0  0  0  0  0  0  0  0  0  0  0  0
  -16.2986   35.3399  -25.6873 C   0  0  0  0  0  0  0  0  0  0  0  0
  -16.7353   34.6395  -26.9610 C   0  0  0  0  0  0  0  0  0  0  0  0
  -16.5994   33.2227  -26.8722 C   0  0  0  0  0  0  0  0  0  0  0  0
  -17.2526   32.6142  -25.8861 C   0  0  0  0  0  0  0  0  0  0  0  0
  -16.3451   32.6003  -27.9892 C   0  0  0  0  0  0  0  0  0  0  0  0
  -15.6577   33.2137  -29.0809 C   0  0  0  0  0  0  0  0  0  0  0  0
  -16.4479   32.0541  -24.8758 C   0  0  0  0  0  0  0  0  0  0  0  0
  -16.9695   31.1886  -23.7773 C   0  0  0  0  0  0  0  0  0  0  0  0
  -18.3986   31.3330  -23.5808 C   0  0  0  0  0  0  0  0  0  0  0  0
  -18.6485   32.5003  -25.5877 C   0  0  0  0  0  0  0  0  0  0  0  0
  -19.1482   31.8446  -24.5314 C   0  0  0  0  0  0  0  0  0  0  0  0
  -15.6216   34.4246  -29.1339 C   0  0  0  0  0  0  0  0  0  0  0  0
  -18.9232   30.5492  -22.4001 C   0  0  0  0  0  0  0  0  0  0  0  0
  -15.9788   35.2798  -27.9647 C   0  0  0  0  0  0  0  0  0  0  0  0
  -16.0534   30.6960  -22.7690 C   0  0  0  0  0  0  0  0  0  0  0  0
  -16.0226   29.3873  -22.7012 O   0  0  0  0  0  0  0  0  0  0  0  0
  1  2  1  0
  2  3  1  0
  2  4  1  0
  2  5  2  0
  3  6  1  0
  6  7  1  0
  7  8  1  0
  8  9  1  0
  9 10  1  0
 10 11  1  0
 10 12  2  0
 12 13  1  0
 11 14  1  0
 14 15  2  0
 15 16  1  0
 11 17  2  0
 16 18  2  0
 17 18  1  0
 13 19  2  0
 16 20  1  0
  9 21  2  0
 19 21  1  0
 15 22  1  0
 22 23  1  0
M  END
