
     RDKit          3D

 14 14  0  0  0  0  0  0  0  0999 V2000
  -14.7852   31.5926  -24.1597 N   0  0  0  0  0  0  0  0  0  0  0  0
  -15.3924   30.8150  -23.3107 C   0  0  0  0  0  0  0  0  0  0  0  0
  -15.5416   32.6078  -24.7567 C   0  0  0  0  0  0  0  0  0  0  0  0
  -16.7681   31.1920  -23.2253 C   0  0  0  0  0  0  0  0  0  0  0  0
  -14.8647   29.6959  -22.5172 C   0  0  0  0  0  0  0  0  0  0  0  0
  -14.1407   28.9550  -23.1570 O   0  0  0  0  0  0  0  0  0  0  0  0
  -16.7813   32.8616  -24.6574 C   0  0  0  0  0  0  0  0  0  0  0  0
  -15.4718   29.3861  -21.5628 O   0  0  0  0  0  0  0  0  0  0  0  0
  -17.4702   32.1030  -23.8092 N   0  0  0  0  0  0  0  0  0  0  0  0
  -17.4448   34.0069  -25.4477 C   0  0  0  0  0  0  0  0  0  0  0  0
  -18.7416   33.8443  -25.6858 O   0  0  0  0  0  0  0  0  0  0  0  0
  -16.6474   34.8060  -26.1756 N   0  0  0  0  0  0  0  0  0  0  0  0
  -17.1511   35.6387  -27.1859 C   0  0  0  0  0  0  0  0  0  0  0  0
  -16.1765   35.4434  -28.3290 C   0  0  0  0  0  0  0  0  0  0  0  0
  1  2  1  0
  1  3  2  0
  2  4  2  0
  2  5  1  0
  5  6  1  0
  3  7  1  0
  5  8  2  0
  4  9  1  0
  7  9  2  0
  7 10  1  0
 10 11  2  0
 10 12  1  0
 12 13  1  0
 13 14  1  0
M  END
