
     RDKit          3D

 23 23  0  0  0  0  0  0  0  0999 V2000
  -16.3474   36.4961  -20.6363 O   0  0  0  0  0  0  0  0  0  0  0  0
  -17.8080   37.0308  -20.6429 P   0  0  0  0  0  0  0  0  0  0  0  0
  -18.6671   36.4180  -19.8047 O   0  0  0  0  0  0  0  0  0  0  0  0
  -18.3069   36.4921  -22.1802 O   0  0  0  0  0  0  0  0  0  0  0  0
  -17.8249   38.4722  -20.5096 O   0  0  0  0  0  0  0  0  0  0  0  0
  -17.5243   35.7189  -23.0990 P   0  0  0  0  0  0  0  0  0  0  0  0
  -17.9841   34.4230  -23.2706 O   0  0  0  0  0  0  0  0  0  0  0  0
  -17.4439   33.3189  -24.0671 C   0  0  0  0  0  0  0  0  0  0  0  0
  -18.0965   32.0919  -23.7460 C   0  0  0  0  0  0  0  0  0  0  0  0
  -17.6560   33.7112  -25.5367 C   0  0  0  0  0  0  0  0  0  0  0  0
  -17.2306   31.0763  -23.2918 C   0  0  0  0  0  0  0  0  0  0  0  0
  -15.9479   31.0876  -23.3230 C   0  0  0  0  0  0  0  0  0  0  0  0
  -15.1488   29.9572  -22.7664 C   0  0  0  0  0  0  0  0  0  0  0  0
  -15.8444   29.0072  -22.1621 C   0  0  0  0  0  0  0  0  0  0  0  0
  -17.7918   29.8367  -22.5386 C   0  0  0  0  0  0  0  0  0  0  0  0
  -17.0500   28.7538  -22.0616 C   0  0  0  0  0  0  0  0  0  0  0  0
  -14.9452   27.9424  -21.7054 O   0  0  0  0  0  0  0  0  0  0  0  0
  -17.8661   32.5936  -26.3322 C   0  0  0  0  0  0  0  0  0  0  0  0
  -17.6413   36.4608  -24.4653 O   0  0  0  0  0  0  0  0  0  0  0  0
  -16.0290   35.5848  -22.7210 O   0  0  0  0  0  0  0  0  0  0  0  0
  -17.0178   32.6549  -27.5981 C   0  0  0  0  0  0  0  0  0  0  0  0
  -16.0370   31.9958  -27.8296 O   0  0  0  0  0  0  0  0  0  0  0  0
  -17.1804   33.8731  -28.2003 O   0  0  0  0  0  0  0  0  0  0  0  0
  1  2  1  0
  2  3  1  0
  2  4  1  0
  2  5  2  0
  4  6  1  0
  6  7  1  0
  7  8  1  0
  8  9  1  0
  8 10  1  0
  9 11  1  0
 11 12  2  0
 12 13  1  0
 13 14  2  0
 11 15  1  0
 14 16  1  0
 15 16  2  0
 14 17  1  0
 10 18  1  0
  6 19  2  0
  6 20  1  0
 18 21  1  0
 21 22  2  0
 21 23  1  0
M  END
