
     RDKit          3D

 23 24  0  0  0  0  0  0  0  0999 V2000
  -15.9333   33.3737  -28.3999 O   0  0  0  0  0  0  0  0  0  0  0  0
  -16.7726   33.1245  -27.5037 C   0  0  0  0  0  0  0  0  0  0  0  0
  -17.4592   34.0831  -26.9777 C   0  0  0  0  0  0  0  0  0  0  0  0
  -17.7255   33.9447  -25.5308 C   0  0  0  0  0  0  0  0  0  0  0  0
  -17.0540   34.8435  -24.7937 C   0  0  0  0  0  0  0  0  0  0  0  0
  -17.4287   35.0134  -23.5590 C   0  0  0  0  0  0  0  0  0  0  0  0
  -16.9589   36.2321  -25.4748 O   0  0  0  0  0  0  0  0  0  0  0  0
  -18.0310   33.9794  -23.0776 O   0  0  0  0  0  0  0  0  0  0  0  0
  -18.1881   32.9842  -24.2266 C   0  0  0  0  0  0  0  0  0  0  0  0
  -17.8686   36.1872  -23.0803 O   0  0  0  0  0  0  0  0  0  0  0  0
  -18.9909   36.4976  -22.0106 P   0  0  0  0  0  0  0  0  0  0  0  0
  -17.6560   31.7048  -24.1109 C   0  0  0  0  0  0  0  0  0  0  0  0
  -18.1040   31.0492  -22.9975 C   0  0  0  0  0  0  0  0  0  0  0  0
  -16.1424   31.8417  -24.1178 O   0  0  0  0  0  0  0  0  0  0  0  0
  -19.3049   31.1431  -22.6515 O   0  0  0  0  0  0  0  0  0  0  0  0
  -17.3914   30.0125  -22.4363 N   0  0  0  0  0  0  0  0  0  0  0  0
  -15.9973   30.1147  -22.2473 C   0  0  0  0  0  0  0  0  0  0  0  0
  -15.3990   30.9031  -23.4506 C   0  0  0  0  0  0  0  0  0  0  0  0
  -15.3342   28.8372  -22.0823 C   0  0  0  0  0  0  0  0  0  0  0  0
  -19.9719   37.1095  -22.5740 O   0  0  0  0  0  0  0  0  0  0  0  0
  -18.2089   37.1655  -20.8319 O   0  0  0  0  0  0  0  0  0  0  0  0
  -19.4399   35.1842  -21.3198 O   0  0  0  0  0  0  0  0  0  0  0  0
  -18.8144   34.0082  -27.4935 O   0  0  0  0  0  0  0  0  0  0  0  0
  1  2  1  0
  2  3  1  0
  3  4  1  0
  4  5  1  0
  5  6  1  0
  5  7  1  0
  6  8  1  0
  4  9  1  0
  8  9  1  0
  6 10  1  0
 10 11  1  0
  9 12  1  0
 12 13  1  0
 12 14  1  0
 13 15  2  0
 13 16  1  0
 16 17  1  0
 14 18  1  0
 17 18  1  0
 17 19  1  0
 11 20  2  0
 11 21  1  0
 11 22  1  0
  3 23  1  0
M  END
