
     RDKit          3D

 14 14  0  0  0  0  0  0  0  0999 V2000
  -15.6677   33.6440  -28.9004 O   0  0  0  0  0  0  0  0  0  0  0  0
  -16.5837   33.9100  -27.9010 C   0  0  0  0  0  0  0  0  0  0  0  0
  -17.0430   32.8023  -27.1367 C   0  0  0  0  0  0  0  0  0  0  0  0
  -17.4646   33.0700  -25.8257 C   0  0  0  0  0  0  0  0  0  0  0  0
  -17.5045   31.9146  -25.0404 C   0  0  0  0  0  0  0  0  0  0  0  0
  -16.4627   33.9812  -25.1242 C   0  0  0  0  0  0  0  0  0  0  0  0
  -18.6751   31.6510  -24.2525 C   0  0  0  0  0  0  0  0  0  0  0  0
  -16.8543   35.2306  -24.6943 C   0  0  0  0  0  0  0  0  0  0  0  0
  -16.1438   35.8980  -23.8203 O   0  0  0  0  0  0  0  0  0  0  0  0
  -19.2638   32.5332  -23.8345 O   0  0  0  0  0  0  0  0  0  0  0  0
  -18.0046   35.7252  -25.1260 O   0  0  0  0  0  0  0  0  0  0  0  0
  -16.1919   31.7549  -24.2507 O   0  0  0  0  0  0  0  0  0  0  0  0
  -18.3371   30.5284  -23.3104 O   0  0  0  0  0  0  0  0  0  0  0  0
  -15.5647   33.2979  -24.2583 C   0  0  0  0  0  0  0  0  0  0  0  0
  1  2  1  0
  2  3  1  0
  3  4  1  0
  4  5  1  0
  4  6  1  0
  5  7  1  0
  6  8  1  0
  8  9  1  0
  7 10  1  0
  8 11  2  0
  5 12  1  0
  7 13  1  0
  6 14  1  0
 12 14  1  0
M  END
