
     RDKit          3D

 14 14  0  0  0  0  0  0  0  0999 V2000
  -16.3124   34.7008  -27.8652 C   0  0  0  0  0  0  0  0  0  0  0  0
  -16.4306   35.2041  -26.6408 C   0  0  0  0  0  0  0  0  0  0  0  0
  -17.0710   34.2589  -25.6778 C   0  0  0  0  0  0  0  0  0  0  0  0
  -17.4780   33.0860  -26.1456 C   0  0  0  0  0  0  0  0  0  0  0  0
  -16.7550   33.4299  -28.3287 C   0  0  0  0  0  0  0  0  0  0  0  0
  -17.3645   32.6165  -27.4164 C   0  0  0  0  0  0  0  0  0  0  0  0
  -18.1646   32.2166  -25.2545 C   0  0  0  0  0  0  0  0  0  0  0  0
  -17.4398   31.7704  -24.0418 N   0  0  0  0  0  0  0  0  0  0  0  0
  -17.8473   30.8022  -23.1883 C   0  0  0  0  0  0  0  0  0  0  0  0
  -18.9977   30.5262  -23.1190 O   0  0  0  0  0  0  0  0  0  0  0  0
  -16.8361   30.4592  -22.1785 N   0  0  0  0  0  0  0  0  0  0  0  0
  -15.8489   29.5103  -22.5446 C   0  0  0  0  0  0  0  0  0  0  0  0
  -14.7550   29.9687  -23.0512 O   0  0  0  0  0  0  0  0  0  0  0  0
  -15.8722   28.3330  -21.8628 C   0  0  0  0  0  0  0  0  0  0  0  0
  1  2  1  0
  2  3  2  0
  3  4  1  0
  1  5  2  0
  4  6  2  0
  5  6  1  0
  4  7  1  0
  7  8  1  0
  8  9  1  0
  9 10  2  0
  9 11  1  0
 11 12  1  0
 12 13  2  0
 12 14  1  0
M  END
