
     RDKit          3D

 15 15  0  0  0  0  0  0  0  0999 V2000
  -14.6538   27.9379  -22.8542 O   0  0  0  0  0  0  0  0  0  0  0  0
  -15.5100   28.8910  -22.3432 C   0  0  0  0  0  0  0  0  0  0  0  0
  -16.6014   28.4621  -21.8747 N   0  0  0  0  0  0  0  0  0  0  0  0
  -15.3640   30.1646  -22.8761 N   0  0  0  0  0  0  0  0  0  0  0  0
  -14.4878   30.7960  -23.4431 C   0  0  0  0  0  0  0  0  0  0  0  0
  -14.9973   31.8547  -24.2213 N   0  0  0  0  0  0  0  0  0  0  0  0
  -16.4135   31.9948  -24.1723 C   0  0  0  0  0  0  0  0  0  0  0  0
  -16.6742   30.9093  -23.2256 C   0  0  0  0  0  0  0  0  0  0  0  0
  -17.3200   32.8299  -24.7008 C   0  0  0  0  0  0  0  0  0  0  0  0
  -16.9552   33.1880  -26.0673 C   0  0  0  0  0  0  0  0  0  0  0  0
  -16.5525   34.4337  -26.5249 C   0  0  0  0  0  0  0  0  0  0  0  0
  -17.8295   32.6970  -27.2349 C   0  0  0  0  0  0  0  0  0  0  0  0
  -16.4393   34.6796  -27.8294 O   0  0  0  0  0  0  0  0  0  0  0  0
  -16.4058   35.4553  -25.8000 O   0  0  0  0  0  0  0  0  0  0  0  0
  -17.9338   30.7967  -22.4518 C   0  0  0  0  0  0  0  0  0  0  0  0
  1  2  2  0
  2  3  1  0
  2  4  1  0
  4  5  1  0
  5  6  1  0
  6  7  1  0
  4  8  1  0
  7  8  2  0
  7  9  1  0
  9 10  1  0
 10 11  1  0
 10 12  1  0
 11 13  2  0
 11 14  1  0
  8 15  1  0
M  END
