
     RDKit          3D

 15 16  0  0  0  0  0  0  0  0999 V2000
  -15.2450   35.0640  -25.5892 O   0  0  0  0  0  0  0  0  0  0  0  0
  -16.4651   34.7521  -25.4417 C   0  0  0  0  0  0  0  0  0  0  0  0
  -16.8354   33.5612  -26.2528 C   0  0  0  0  0  0  0  0  0  0  0  0
  -15.9181   33.2690  -27.2684 O   0  0  0  0  0  0  0  0  0  0  0  0
  -16.3779   33.3011  -28.6007 C   0  0  0  0  0  0  0  0  0  0  0  0
  -16.7882   34.5214  -23.9494 C   0  0  0  0  0  0  0  0  0  0  0  0
  -16.9312   32.3626  -25.4445 C   0  0  0  0  0  0  0  0  0  0  0  0
  -18.0715   31.7655  -25.1533 O   0  0  0  0  0  0  0  0  0  0  0  0
  -18.5432   31.9117  -23.8537 C   0  0  0  0  0  0  0  0  0  0  0  0
  -17.4289   31.8991  -22.9110 C   0  0  0  0  0  0  0  0  0  0  0  0
  -16.4891   32.7508  -23.9600 C   0  0  0  0  0  0  0  0  0  0  0  0
  -16.1414   35.2283  -23.2045 O   0  0  0  0  0  0  0  0  0  0  0  0
  -16.8368   30.6106  -22.9875 O   0  0  0  0  0  0  0  0  0  0  0  0
  -15.5734   30.3426  -22.3523 C   0  0  0  0  0  0  0  0  0  0  0  0
  -15.3530   28.9271  -22.2343 C   0  0  0  0  0  0  0  0  0  0  0  0
  1  2  1  0
  2  3  1  0
  3  4  1  0
  4  5  1  0
  2  6  1  0
  3  7  1  0
  7  8  1  0
  8  9  1  0
  9 10  1  0
  6 11  1  0
  7 11  1  0
 10 11  1  0
  6 12  1  0
 10 13  1  0
 13 14  1  0
 14 15  1  0
M  END
