
     RDKit          3D

 15 16  0  0  0  0  0  0  0  0999 V2000
  -15.9957   34.1586  -28.5841 N   0  0  0  0  0  0  0  0  0  0  0  0
  -16.6213   33.5872  -27.7403 C   0  0  0  0  0  0  0  0  0  0  0  0
  -16.9780   32.3985  -27.7004 N   0  0  0  0  0  0  0  0  0  0  0  0
  -17.6766   32.1378  -26.5130 C   0  0  0  0  0  0  0  0  0  0  0  0
  -17.6460   33.2053  -25.7426 C   0  0  0  0  0  0  0  0  0  0  0  0
  -16.8690   34.3538  -26.4205 C   0  0  0  0  0  0  0  0  0  0  0  0
  -18.0923   33.2208  -24.2692 C   0  0  0  0  0  0  0  0  0  0  0  0
  -17.9579   34.4212  -23.7395 N   0  0  0  0  0  0  0  0  0  0  0  0
  -17.3119   35.5412  -24.2588 C   0  0  0  0  0  0  0  0  0  0  0  0
  -18.6544   32.1101  -23.6841 C   0  0  0  0  0  0  0  0  0  0  0  0
  -19.4862   32.1929  -22.9631 O   0  0  0  0  0  0  0  0  0  0  0  0
  -16.7841   35.4694  -25.6485 C   0  0  0  0  0  0  0  0  0  0  0  0
  -17.7402   30.9460  -23.4890 N   0  0  0  0  0  0  0  0  0  0  0  0
  -17.4889   36.7382  -23.7177 O   0  0  0  0  0  0  0  0  0  0  0  0
  -18.1999   29.8759  -22.7279 O   0  0  0  0  0  0  0  0  0  0  0  0
  1  2  1  0
  2  3  2  0
  3  4  1  0
  4  5  2  0
  2  6  1  0
  5  6  1  0
  5  7  1  0
  7  8  2  0
  8  9  1  0
  7 10  1  0
 10 11  2  0
  6 12  1  0
  9 12  1  0
 10 13  1  0
  9 14  2  0
 13 15  1  0
M  END
