
     RDKit          3D

 15 15  0  0  0  0  0  0  0  0999 V2000
  -14.7327   28.3413  -22.8477 O   0  0  0  0  0  0  0  0  0  0  0  0
  -15.5963   29.1996  -22.5267 C   0  0  0  0  0  0  0  0  0  0  0  0
  -15.4076   30.4413  -22.8817 C   0  0  0  0  0  0  0  0  0  0  0  0
  -16.5391   31.1013  -23.4189 N   0  0  0  0  0  0  0  0  0  0  0  0
  -16.7729   28.6934  -22.2953 O   0  0  0  0  0  0  0  0  0  0  0  0
  -17.8968   30.9101  -23.1019 C   0  0  0  0  0  0  0  0  0  0  0  0
  -18.7057   31.7631  -23.6749 C   0  0  0  0  0  0  0  0  0  0  0  0
  -16.3567   32.2662  -24.1802 C   0  0  0  0  0  0  0  0  0  0  0  0
  -17.7137   32.6287  -24.5458 C   0  0  0  0  0  0  0  0  0  0  0  0
  -18.0918   33.7572  -25.4831 C   0  0  0  0  0  0  0  0  0  0  0  0
  -17.2471   34.0150  -26.4520 C   0  0  0  0  0  0  0  0  0  0  0  0
  -19.3561   33.3983  -26.1436 O   0  0  0  0  0  0  0  0  0  0  0  0
  -17.0281   33.1793  -27.5168 C   0  0  0  0  0  0  0  0  0  0  0  0
  -15.7119   34.1545  -25.8905 O   0  0  0  0  0  0  0  0  0  0  0  0
  -16.1339   33.7480  -28.5616 O   0  0  0  0  0  0  0  0  0  0  0  0
  1  2  1  0
  2  3  1  0
  3  4  1  0
  2  5  2  0
  4  6  1  0
  6  7  2  0
  4  8  1  0
  7  9  1  0
  8  9  2  0
  9 10  1  0
 10 11  1  0
 10 12  1  0
 11 13  1  0
 11 14  1  0
 13 15  1  0
M  END
