
     RDKit          3D

 15 14  0  0  0  0  0  0  0  0999 V2000
  -14.5984   28.1292  -22.9236 O   0  0  0  0  0  0  0  0  0  0  0  0
  -15.7138   28.7083  -22.3715 C   0  0  0  0  0  0  0  0  0  0  0  0
  -16.6735   28.0483  -22.0220 O   0  0  0  0  0  0  0  0  0  0  0  0
  -15.7815   30.1630  -22.3531 C   0  0  0  0  0  0  0  0  0  0  0  0
  -15.1451   30.7905  -23.5385 C   0  0  0  0  0  0  0  0  0  0  0  0
  -16.0471   31.8414  -24.0367 C   0  0  0  0  0  0  0  0  0  0  0  0
  -15.3672   32.8373  -24.7541 N   0  0  0  0  0  0  0  0  0  0  0  0
  -16.1022   33.6471  -25.6834 C   0  0  0  0  0  0  0  0  0  0  0  0
  -15.9654   35.0263  -25.4560 C   0  0  0  0  0  0  0  0  0  0  0  0
  -17.2317   31.7794  -24.0911 O   0  0  0  0  0  0  0  0  0  0  0  0
  -16.0067   33.1054  -27.0007 C   0  0  0  0  0  0  0  0  0  0  0  0
  -15.7754   35.6193  -24.5134 O   0  0  0  0  0  0  0  0  0  0  0  0
  -16.2400   34.0474  -28.0195 C   0  0  0  0  0  0  0  0  0  0  0  0
  -16.4711   31.7452  -27.3269 C   0  0  0  0  0  0  0  0  0  0  0  0
  -15.8432   35.7759  -26.6761 O   0  0  0  0  0  0  0  0  0  0  0  0
  1  2  2  0
  2  3  1  0
  2  4  1  0
  4  5  1  0
  5  6  1  0
  6  7  1  0
  7  8  1  0
  8  9  1  0
  6 10  2  0
  8 11  1  0
  9 12  1  0
 11 13  1  0
 11 14  1  0
  9 15  2  0
M  END
