
     RDKit          3D

 15 16  0  0  0  0  0  0  0  0999 V2000
  -14.5634   28.0068  -22.8279 O   0  0  0  0  0  0  0  0  0  0  0  0
  -15.5745   28.8804  -22.3954 C   0  0  0  0  0  0  0  0  0  0  0  0
  -15.4407   30.1989  -22.6492 C   0  0  0  0  0  0  0  0  0  0  0  0
  -16.6086   30.7974  -23.4099 N   0  0  0  0  0  0  0  0  0  0  0  0
  -17.9377   30.4070  -23.0723 C   0  0  0  0  0  0  0  0  0  0  0  0
  -18.7330   31.5075  -23.1266 C   0  0  0  0  0  0  0  0  0  0  0  0
  -16.5004   32.0897  -23.8496 C   0  0  0  0  0  0  0  0  0  0  0  0
  -15.8074   32.1476  -25.1528 N   0  0  0  0  0  0  0  0  0  0  0  0
  -16.4538   32.9176  -26.1174 C   0  0  0  0  0  0  0  0  0  0  0  0
  -17.8398   32.5885  -23.7962 C   0  0  0  0  0  0  0  0  0  0  0  0
  -16.3135   32.5072  -27.4232 C   0  0  0  0  0  0  0  0  0  0  0  0
  -16.3592   34.3202  -25.9314 C   0  0  0  0  0  0  0  0  0  0  0  0
  -16.6833   33.3826  -28.4648 C   0  0  0  0  0  0  0  0  0  0  0  0
  -16.5876   35.2127  -26.9170 C   0  0  0  0  0  0  0  0  0  0  0  0
  -16.6784   34.8103  -28.1342 C   0  0  0  0  0  0  0  0  0  0  0  0
  1  2  1  0
  2  3  1  0
  3  4  1  0
  4  5  1  0
  5  6  1  0
  4  7  1  0
  7  8  1  0
  8  9  1  0
  6 10  1  0
  7 10  1  0
  9 11  1  0
  9 12  2  0
 11 13  2  0
 12 14  1  0
 13 15  1  0
 14 15  2  0
M  END
