
     RDKit          3D

 15 16  0  0  0  0  0  0  0  0999 V2000
  -16.3124   34.7008  -27.8652 C   0  0  0  0  0  0  0  0  0  0  0  0
  -16.4306   35.2041  -26.6408 C   0  0  0  0  0  0  0  0  0  0  0  0
  -17.0710   34.2589  -25.6778 C   0  0  0  0  0  0  0  0  0  0  0  0
  -17.4780   33.0860  -26.1456 C   0  0  0  0  0  0  0  0  0  0  0  0
  -16.7550   33.4299  -28.3287 C   0  0  0  0  0  0  0  0  0  0  0  0
  -17.3645   32.6165  -27.4164 C   0  0  0  0  0  0  0  0  0  0  0  0
  -18.1646   32.2166  -25.2545 C   0  0  0  0  0  0  0  0  0  0  0  0
  -17.4398   31.7704  -24.0418 C   0  0  0  0  0  0  0  0  0  0  0  0
  -15.9878   31.8491  -24.0694 C   0  0  0  0  0  0  0  0  0  0  0  0
  -15.2063   31.1908  -23.1226 C   0  0  0  0  0  0  0  0  0  0  0  0
  -15.7109   30.1180  -22.5269 C   0  0  0  0  0  0  0  0  0  0  0  0
  -17.0558   29.8434  -22.5567 N   0  0  0  0  0  0  0  0  0  0  0  0
  -17.8594   30.5300  -23.3457 C   0  0  0  0  0  0  0  0  0  0  0  0
  -14.9808   29.2681  -21.6949 O   0  0  0  0  0  0  0  0  0  0  0  0
  -15.1258   27.9316  -22.0038 C   0  0  0  0  0  0  0  0  0  0  0  0
  1  2  1  0
  2  3  2  0
  3  4  1  0
  1  5  2  0
  4  6  2  0
  5  6  1  0
  4  7  1  0
  7  8  1  0
  8  9  2  0
  9 10  1  0
 10 11  2  0
 11 12  1  0
  8 13  1  0
 12 13  2  0
 11 14  1  0
 14 15  1  0
M  END
