
     RDKit          3D

 10 10  0  0  0  0  0  0  0  0999 V2000
  -15.2450   35.0640  -25.5892 O   0  0  0  0  0  0  0  0  0  0  0  0
  -16.4145   34.7756  -25.9187 C   0  0  0  0  0  0  0  0  0  0  0  0
  -16.8523   34.5882  -27.1389 C   0  0  0  0  0  0  0  0  0  0  0  0
  -16.9897   33.6515  -24.9869 C   0  0  0  0  0  0  0  0  0  0  0  0
  -16.3339   33.3948  -27.6633 C   0  0  0  0  0  0  0  0  0  0  0  0
  -16.7258   33.8172  -23.6192 O   0  0  0  0  0  0  0  0  0  0  0  0
  -16.7641   32.1624  -27.0232 C   0  0  0  0  0  0  0  0  0  0  0  0
  -16.4693   32.3335  -25.5191 C   0  0  0  0  0  0  0  0  0  0  0  0
  -15.1670   32.2387  -25.0586 O   0  0  0  0  0  0  0  0  0  0  0  0
  -15.9299   33.3503  -28.8224 O   0  0  0  0  0  0  0  0  0  0  0  0
  1  2  1  0
  2  3  1  0
  2  4  1  0
  3  5  1  0
  4  6  1  0
  5  7  1  0
  4  8  1  0
  7  8  1  0
  8  9  1  0
  5 10  2  0
M  END
