
     RDKit          3D

 15 15  0  0  0  0  0  0  0  0999 V2000
  -18.9141   30.8564  -22.8484 O   0  0  0  0  0  0  0  0  0  0  0  0
  -17.7244   31.2654  -23.2216 C   0  0  0  0  0  0  0  0  0  0  0  0
  -16.5673   30.5148  -22.9704 C   0  0  0  0  0  0  0  0  0  0  0  0
  -17.5608   32.5331  -23.7413 N   0  0  0  0  0  0  0  0  0  0  0  0
  -15.3383   30.9725  -23.4782 O   0  0  0  0  0  0  0  0  0  0  0  0
  -16.3504   33.0734  -24.3407 C   0  0  0  0  0  0  0  0  0  0  0  0
  -18.7535   33.3619  -24.1408 C   0  0  0  0  0  0  0  0  0  0  0  0
  -16.5360   29.3408  -22.3002 N   0  0  0  0  0  0  0  0  0  0  0  0
  -18.4266   34.4728  -24.9685 C   0  0  0  0  0  0  0  0  0  0  0  0
  -16.8527   34.3987  -25.0451 C   0  0  0  0  0  0  0  0  0  0  0  0
  -15.3826   28.5132  -22.2143 C   0  0  0  0  0  0  0  0  0  0  0  0
  -16.2141   34.5874  -26.3489 N   0  0  0  0  0  0  0  0  0  0  0  0
  -16.8541   34.1776  -27.5856 C   0  0  0  0  0  0  0  0  0  0  0  0
  -17.7731   33.3418  -27.5236 O   0  0  0  0  0  0  0  0  0  0  0  0
  -16.2744   34.6125  -28.7056 N   0  0  0  0  0  0  0  0  0  0  0  0
  1  2  2  0
  2  3  1  0
  2  4  1  0
  3  5  2  0
  4  6  1  0
  4  7  1  0
  3  8  1  0
  7  9  1  0
  6 10  1  0
  9 10  1  0
  8 11  1  0
 10 12  1  0
 12 13  1  0
 13 14  2  0
 13 15  1  0
M  END
