
     RDKit          3D

 15 15  0  0  0  0  0  0  0  0999 V2000
  -18.9141   30.8564  -22.8484 O   0  0  0  0  0  0  0  0  0  0  0  0
  -17.7244   31.2654  -23.2216 C   0  0  0  0  0  0  0  0  0  0  0  0
  -16.5673   30.5148  -22.9704 C   0  0  0  0  0  0  0  0  0  0  0  0
  -17.5608   32.5331  -23.7413 N   0  0  0  0  0  0  0  0  0  0  0  0
  -15.3383   30.9725  -23.4782 O   0  0  0  0  0  0  0  0  0  0  0  0
  -16.3504   33.0734  -24.3407 C   0  0  0  0  0  0  0  0  0  0  0  0
  -18.7535   33.3619  -24.1408 C   0  0  0  0  0  0  0  0  0  0  0  0
  -16.5360   29.3408  -22.3002 N   0  0  0  0  0  0  0  0  0  0  0  0
  -15.4090   28.5134  -22.2269 C   0  0  0  0  0  0  0  0  0  0  0  0
  -18.6542   34.6134  -23.5093 C   0  0  0  0  0  0  0  0  0  0  0  0
  -17.5556   35.4446  -23.9343 C   0  0  0  0  0  0  0  0  0  0  0  0
  -17.2702   36.4923  -23.2741 C   0  0  0  0  0  0  0  0  0  0  0  0
  -16.3175   36.9405  -22.7987 O   0  0  0  0  0  0  0  0  0  0  0  0
  -16.3027   34.4117  -23.7390 C   0  0  0  0  0  0  0  0  0  0  0  0
  -18.4872   37.0385  -22.6928 O   0  0  0  0  0  0  0  0  0  0  0  0
  1  2  2  0
  2  3  1  0
  2  4  1  0
  3  5  2  0
  4  6  1  0
  4  7  1  0
  3  8  1  0
  8  9  1  0
  7 10  1  0
 10 11  1  0
 11 12  1  0
 12 13  1  0
  6 14  1  0
 11 14  1  0
 12 15  2  0
M  END
