
     RDKit          3D

 15 15  0  0  0  0  0  0  0  0999 V2000
  -15.9957   34.1586  -28.5841 N   0  0  0  0  0  0  0  0  0  0  0  0
  -16.6213   33.5872  -27.7403 C   0  0  0  0  0  0  0  0  0  0  0  0
  -17.0769   34.3671  -26.6256 N   0  0  0  0  0  0  0  0  0  0  0  0
  -16.5915   32.4186  -27.5662 N   0  0  0  0  0  0  0  0  0  0  0  0
  -17.6736   33.8250  -25.5870 C   0  0  0  0  0  0  0  0  0  0  0  0
  -18.2937   34.6631  -24.5667 C   0  0  0  0  0  0  0  0  0  0  0  0
  -17.4565   35.5886  -24.0286 C   0  0  0  0  0  0  0  0  0  0  0  0
  -18.9392   33.7177  -23.5360 C   0  0  0  0  0  0  0  0  0  0  0  0
  -18.1539   32.5230  -23.1902 N   0  0  0  0  0  0  0  0  0  0  0  0
  -17.8834   36.8441  -23.7465 O   0  0  0  0  0  0  0  0  0  0  0  0
  -16.5740   33.0170  -24.9081 C   0  0  0  0  0  0  0  0  0  0  0  0
  -17.2338   32.0740  -23.8086 C   0  0  0  0  0  0  0  0  0  0  0  0
  -18.5766   32.0248  -21.9036 C   0  0  0  0  0  0  0  0  0  0  0  0
  -16.8077   30.8125  -23.8695 O   0  0  0  0  0  0  0  0  0  0  0  0
  -16.2152   35.6756  -24.2629 O   0  0  0  0  0  0  0  0  0  0  0  0
  1  2  1  0
  2  3  1  0
  2  4  2  0
  3  5  1  0
  5  6  1  0
  6  7  1  0
  6  8  1  0
  8  9  1  0
  7 10  1  0
  5 11  1  0
  9 12  1  0
 11 12  1  0
  9 13  1  0
 12 14  2  0
  7 15  2  0
M  END
