
     RDKit          3D

 15 14  0  0  0  0  0  0  0  0999 V2000
  -19.3446   30.8550  -22.3508 O   0  0  0  0  0  0  0  0  0  0  0  0
  -18.7300   31.9008  -22.5517 C   0  0  0  0  0  0  0  0  0  0  0  0
  -19.0479   32.9445  -21.8181 O   0  0  0  0  0  0  0  0  0  0  0  0
  -17.8962   31.9607  -23.6188 C   0  0  0  0  0  0  0  0  0  0  0  0
  -17.7108   33.0566  -24.4431 N   0  0  0  0  0  0  0  0  0  0  0  0
  -16.5455   31.2972  -23.2788 C   0  0  0  0  0  0  0  0  0  0  0  0
  -15.4529   31.7418  -23.8885 O   0  0  0  0  0  0  0  0  0  0  0  0
  -18.6980   33.5108  -25.2513 C   0  0  0  0  0  0  0  0  0  0  0  0
  -16.4766   30.3736  -22.3460 N   0  0  0  0  0  0  0  0  0  0  0  0
  -18.2911   34.7034  -26.0776 C   0  0  0  0  0  0  0  0  0  0  0  0
  -15.4723   29.3118  -22.4911 C   0  0  0  0  0  0  0  0  0  0  0  0
  -15.7993   28.0484  -22.0355 C   0  0  0  0  0  0  0  0  0  0  0  0
  -17.7921   35.6596  -25.3722 O   0  0  0  0  0  0  0  0  0  0  0  0
  -17.2369   34.1488  -27.1637 C   0  0  0  0  0  0  0  0  0  0  0  0
  -16.1603   35.0162  -27.4132 O   0  0  0  0  0  0  0  0  0  0  0  0
  1  2  1  0
  2  3  2  0
  2  4  1  0
  4  5  1  0
  4  6  1  0
  6  7  2  0
  5  8  1  0
  6  9  1  0
  8 10  1  0
  9 11  1  0
 11 12  1  0
 10 13  1  0
 10 14  1  0
 14 15  1  0
M  END
