
     RDKit          3D

 15 15  0  0  0  0  0  0  0  0999 V2000
  -14.5924   28.6734  -22.7157 O   0  0  0  0  0  0  0  0  0  0  0  0
  -15.8002   29.3311  -22.5203 C   0  0  0  0  0  0  0  0  0  0  0  0
  -15.7983   30.6436  -22.8781 C   0  0  0  0  0  0  0  0  0  0  0  0
  -17.0961   31.2548  -22.9844 C   0  0  0  0  0  0  0  0  0  0  0  0
  -17.3581   32.2491  -23.9004 C   0  0  0  0  0  0  0  0  0  0  0  0
  -18.2145   30.6441  -22.4351 O   0  0  0  0  0  0  0  0  0  0  0  0
  -16.3268   32.8564  -24.5120 O   0  0  0  0  0  0  0  0  0  0  0  0
  -16.6985   28.5208  -22.2217 O   0  0  0  0  0  0  0  0  0  0  0  0
  -18.5287   32.9387  -24.0118 N   0  0  0  0  0  0  0  0  0  0  0  0
  -18.8303   33.9899  -24.8511 C   0  0  0  0  0  0  0  0  0  0  0  0
  -18.7261   33.7103  -26.2723 C   0  0  0  0  0  0  0  0  0  0  0  0
  -19.0689   35.2412  -24.4249 C   0  0  0  0  0  0  0  0  0  0  0  0
  -18.7884   34.9044  -27.1270 C   0  0  0  0  0  0  0  0  0  0  0  0
  -18.9904   36.1069  -26.6088 C   0  0  0  0  0  0  0  0  0  0  0  0
  -19.1251   36.3513  -25.2762 C   0  0  0  0  0  0  0  0  0  0  0  0
  1  2  1  0
  2  3  1  0
  3  4  1  0
  4  5  1  0
  4  6  2  0
  5  7  2  0
  2  8  2  0
  5  9  1  0
  9 10  1  0
 10 11  1  0
 10 12  2  0
 11 13  2  0
 13 14  1  0
 12 15  1  0
 14 15  2  0
M  END
