
     RDKit          3D

 15 15  0  0  0  0  0  0  0  0999 V2000
  -15.4401   28.7680  -22.9042 O   0  0  0  0  0  0  0  0  0  0  0  0
  -16.1204   29.7705  -22.6452 C   0  0  0  0  0  0  0  0  0  0  0  0
  -17.2505   29.8974  -22.1278 N   0  0  0  0  0  0  0  0  0  0  0  0
  -15.5679   30.9864  -23.3974 C   0  0  0  0  0  0  0  0  0  0  0  0
  -14.2379   31.0352  -23.7289 O   0  0  0  0  0  0  0  0  0  0  0  0
  -16.4185   31.9043  -23.9887 N   0  0  0  0  0  0  0  0  0  0  0  0
  -15.8418   32.9949  -24.6988 C   0  0  0  0  0  0  0  0  0  0  0  0
  -16.5289   33.2341  -25.9672 C   0  0  0  0  0  0  0  0  0  0  0  0
  -16.2038   34.5454  -26.6198 C   0  0  0  0  0  0  0  0  0  0  0  0
  -16.1771   35.6356  -25.8280 O   0  0  0  0  0  0  0  0  0  0  0  0
  -17.0202   34.8744  -27.8987 C   0  0  0  0  0  0  0  0  0  0  0  0
  -15.9780   35.0419  -28.8369 O   0  0  0  0  0  0  0  0  0  0  0  0
  -16.4133   35.4068  -24.4368 C   0  0  0  0  0  0  0  0  0  0  0  0
  -16.2918   34.2235  -23.7972 C   0  0  0  0  0  0  0  0  0  0  0  0
  -16.6897   36.5601  -23.7921 O   0  0  0  0  0  0  0  0  0  0  0  0
  1  2  2  0
  2  3  1  0
  2  4  1  0
  4  5  2  0
  4  6  1  0
  6  7  1  0
  7  8  1  0
  8  9  1  0
  9 10  1  0
  9 11  1  0
 11 12  1  0
 10 13  1  0
  7 14  1  0
 13 14  1  0
 13 15  2  0
M  END
