
     RDKit          3D

 16 17  0  0  0  0  0  0  0  0999 V2000
  -14.6824   28.3033  -22.6998 O   0  0  0  0  0  0  0  0  0  0  0  0
  -15.6151   29.1821  -22.6283 C   0  0  0  0  0  0  0  0  0  0  0  0
  -16.8401   28.7630  -22.4029 N   0  0  0  0  0  0  0  0  0  0  0  0
  -15.3869   30.4902  -22.6749 N   0  0  0  0  0  0  0  0  0  0  0  0
  -14.8173   31.1066  -23.5799 C   0  0  0  0  0  0  0  0  0  0  0  0
  -15.8097   31.8598  -24.3532 C   0  0  0  0  0  0  0  0  0  0  0  0
  -17.1802   31.9069  -23.9640 C   0  0  0  0  0  0  0  0  0  0  0  0
  -15.3472   32.8994  -25.2637 C   0  0  0  0  0  0  0  0  0  0  0  0
  -16.2068   33.7380  -25.8691 C   0  0  0  0  0  0  0  0  0  0  0  0
  -15.8019   34.7537  -26.8670 C   0  0  0  0  0  0  0  0  0  0  0  0
  -15.7072   35.9080  -26.3918 O   0  0  0  0  0  0  0  0  0  0  0  0
  -17.4448   33.5208  -25.6808 C   0  0  0  0  0  0  0  0  0  0  0  0
  -17.6797   30.9405  -23.0731 C   0  0  0  0  0  0  0  0  0  0  0  0
  -17.8329   29.5638  -23.1965 C   0  0  0  0  0  0  0  0  0  0  0  0
  -16.0807   34.5980  -28.1090 O   0  0  0  0  0  0  0  0  0  0  0  0
  -18.0604   32.6710  -24.7675 C   0  0  0  0  0  0  0  0  0  0  0  0
  1  2  2  0
  2  3  1  0
  2  4  1  0
  4  5  1  0
  5  6  1  0
  6  7  1  0
  6  8  2  0
  8  9  1  0
  9 10  1  0
 10 11  1  0
  9 12  2  0
  7 13  1  0
  3 14  1  0
 13 14  1  0
 10 15  2  0
  7 16  2  0
 12 16  1  0
M  END
