
     RDKit          3D

 16 17  0  0  0  0  0  0  0  0999 V2000
  -15.6677   33.6440  -28.9004 O   0  0  0  0  0  0  0  0  0  0  0  0
  -16.5837   33.9100  -27.9010 C   0  0  0  0  0  0  0  0  0  0  0  0
  -17.0430   32.8023  -27.1367 C   0  0  0  0  0  0  0  0  0  0  0  0
  -17.4646   33.0700  -25.8257 C   0  0  0  0  0  0  0  0  0  0  0  0
  -17.5045   31.9146  -25.0404 C   0  0  0  0  0  0  0  0  0  0  0  0
  -16.4627   33.9812  -25.1242 C   0  0  0  0  0  0  0  0  0  0  0  0
  -18.6751   31.6510  -24.2525 C   0  0  0  0  0  0  0  0  0  0  0  0
  -16.8543   35.2306  -24.6943 C   0  0  0  0  0  0  0  0  0  0  0  0
  -16.3118   31.9198  -24.0132 N   0  0  0  0  0  0  0  0  0  0  0  0
  -16.1393   30.8996  -23.1819 C   0  0  0  0  0  0  0  0  0  0  0  0
  -18.5390   30.7398  -23.1931 C   0  0  0  0  0  0  0  0  0  0  0  0
  -15.8300   33.2378  -24.1680 C   0  0  0  0  0  0  0  0  0  0  0  0
  -17.0400   30.4416  -22.4818 N   0  0  0  0  0  0  0  0  0  0  0  0
  -16.1494   36.0152  -23.9754 O   0  0  0  0  0  0  0  0  0  0  0  0
  -14.8975   30.5974  -22.8813 O   0  0  0  0  0  0  0  0  0  0  0  0
  -18.0308   35.8990  -25.1778 O   0  0  0  0  0  0  0  0  0  0  0  0
  1  2  1  0
  2  3  1  0
  3  4  1  0
  4  5  1  0
  4  6  1  0
  5  7  1  0
  6  8  1  0
  5  9  1  0
  9 10  1  0
  7 11  1  0
  6 12  1  0
  9 12  1  0
 10 13  1  0
 11 13  1  0
  8 14  1  0
 10 15  2  0
  8 16  2  0
M  END
