
     RDKit          3D

  5  4  0  0  0  0  0  0  0  0999 V2000
  -13.9315   27.4456  -22.4769 O   0  0  0  0  0  0  0  0  0  0  0  0
  -15.3588   27.8155  -22.0514 C   0  0  0  0  0  0  0  0  0  0  0  0
  -15.5854   29.2298  -22.2648 C   0  0  0  0  0  0  0  0  0  0  0  0
  -16.2513   27.0984  -21.8611 O   0  0  0  0  0  0  0  0  0  0  0  0
  -14.6337   30.1010  -22.5745 C   0  0  0  0  0  0  0  0  0  0  0  0
  1  2  2  0
  2  3  1  0
  2  4  1  0
  3  5  2  0
M  END
