
     RDKit          3D

  5  4  0  0  0  0  0  0  0  0999 V2000
  -14.6536   27.6967  -22.6129 O   0  0  0  0  0  0  0  0  0  0  0  0
  -15.5525   28.6175  -22.3159 C   0  0  0  0  0  0  0  0  0  0  0  0
  -16.7146   28.1794  -21.9927 O   0  0  0  0  0  0  0  0  0  0  0  0
  -15.2688   30.0016  -22.0599 C   0  0  0  0  0  0  0  0  0  0  0  0
  -14.7448   30.6050  -23.2044 O   0  0  0  0  0  0  0  0  0  0  0  0
  1  2  2  0
  2  3  1  0
  2  4  1  0
  4  5  1  0
M  END
