
     RDKit          3D

 13 13  0  0  0  0  0  0  0  0999 V2000
  -16.0382   36.2314  -20.0305 O   0  0  0  0  0  0  0  0  0  0  0  0
  -17.4492   36.6237  -20.1899 P   0  0  0  0  0  0  0  0  0  0  0  0
  -18.0022   36.1755  -21.4938 O   0  0  0  0  0  0  0  0  0  0  0  0
  -17.5293   35.3046  -22.3796 C   0  0  0  0  0  0  0  0  0  0  0  0
  -17.5001   35.7806  -23.7379 C   0  0  0  0  0  0  0  0  0  0  0  0
  -18.2085   35.9431  -19.0169 O   0  0  0  0  0  0  0  0  0  0  0  0
  -17.4804   38.1510  -20.2351 O   0  0  0  0  0  0  0  0  0  0  0  0
  -17.0359   34.8885  -24.7010 C   0  0  0  0  0  0  0  0  0  0  0  0
  -15.7971   34.7915  -25.1215 C   0  0  0  0  0  0  0  0  0  0  0  0
  -15.5529   33.8815  -26.2436 N   0  0  0  0  0  0  0  0  0  0  0  0
  -16.6830   33.6343  -26.8915 C   0  0  0  0  0  0  0  0  0  0  0  0
  -16.6777   32.9944  -28.0331 O   0  0  0  0  0  0  0  0  0  0  0  0
  -17.8014   34.1479  -26.0663 C   0  0  0  0  0  0  0  0  0  0  0  0
  1  2  2  0
  2  3  1  0
  3  4  1  0
  4  5  1  0
  2  6  1  0
  2  7  1  0
  5  8  1  0
  8  9  2  0
  9 10  1  0
 10 11  1  0
 11 12  2  0
  8 13  1  0
 11 13  1  0
M  END
