
     RDKit          3D

 21 21  0  0  0  0  0  0  0  0999 V2000
  -16.4197   36.4420  -19.5690 O   0  0  0  0  0  0  0  0  0  0  0  0
  -17.3134   36.7692  -20.5653 P   0  0  0  0  0  0  0  0  0  0  0  0
  -16.9568   37.9459  -21.2042 O   0  0  0  0  0  0  0  0  0  0  0  0
  -18.8213   36.8045  -20.0790 O   0  0  0  0  0  0  0  0  0  0  0  0
  -17.2258   35.5333  -21.5518 O   0  0  0  0  0  0  0  0  0  0  0  0
  -17.2492   35.7743  -23.1185 P   0  0  0  0  0  0  0  0  0  0  0  0
  -18.3394   36.6363  -23.4296 O   0  0  0  0  0  0  0  0  0  0  0  0
  -15.9748   36.3699  -23.5771 O   0  0  0  0  0  0  0  0  0  0  0  0
  -17.5245   34.4244  -23.7473 O   0  0  0  0  0  0  0  0  0  0  0  0
  -16.7878   33.7906  -24.7462 C   0  0  0  0  0  0  0  0  0  0  0  0
  -16.3732   32.5596  -24.6178 C   0  0  0  0  0  0  0  0  0  0  0  0
  -16.5729   34.5035  -25.9668 C   0  0  0  0  0  0  0  0  0  0  0  0
  -17.1074   31.6738  -23.7617 C   0  0  0  0  0  0  0  0  0  0  0  0
  -16.3723   30.6747  -22.8602 C   0  0  0  0  0  0  0  0  0  0  0  0
  -17.0181   29.7818  -22.2348 N   0  0  0  0  0  0  0  0  0  0  0  0
  -17.1599   35.7030  -26.4408 C   0  0  0  0  0  0  0  0  0  0  0  0
  -15.6460   33.8716  -26.8282 O   0  0  0  0  0  0  0  0  0  0  0  0
  -18.4876   31.6215  -23.7133 C   0  0  0  0  0  0  0  0  0  0  0  0
  -14.9447   30.6262  -22.8044 O   0  0  0  0  0  0  0  0  0  0  0  0
  -19.1584   30.6966  -22.9518 N   0  0  0  0  0  0  0  0  0  0  0  0
  -18.2991   29.7017  -22.2964 C   0  0  0  0  0  0  0  0  0  0  0  0
  1  2  1  0
  2  3  1  0
  2  4  2  0
  2  5  1  0
  5  6  1  0
  6  7  2  0
  6  8  1  0
  6  9  1  0
  9 10  1  0
 10 11  1  0
 10 12  2  3
 11 13  1  0
 13 14  1  0
 14 15  2  0
 12 16  1  0
 12 17  1  0
 13 18  2  0
 14 19  1  0
 18 20  1  0
 15 21  1  0
 20 21  2  0
M  END
