
     RDKit          3D

 13 12  0  0  0  0  0  0  0  0999 V2000
  -14.1475   27.4678  -22.4406 O   0  0  0  0  0  0  0  0  0  0  0  0
  -15.3454   28.2818  -22.3247 C   0  0  0  0  0  0  0  0  0  0  0  0
  -16.4190   27.7699  -22.1311 O   0  0  0  0  0  0  0  0  0  0  0  0
  -15.2038   29.7351  -22.0203 C   0  0  0  0  0  0  0  0  0  0  0  0
  -15.9310   30.4852  -23.2201 C   0  0  0  0  0  0  0  0  0  0  0  0
  -15.2114   31.3574  -23.8565 O   0  0  0  0  0  0  0  0  0  0  0  0
  -17.2556   30.9619  -22.8224 C   0  0  0  0  0  0  0  0  0  0  0  0
  -17.8835   31.7364  -23.7829 N   0  0  0  0  0  0  0  0  0  0  0  0
  -18.8380   32.5639  -23.4589 C   0  0  0  0  0  0  0  0  0  0  0  0
  -18.0386   30.3217  -22.1701 O   0  0  0  0  0  0  0  0  0  0  0  0
  -18.4628   33.6633  -22.5103 C   0  0  0  0  0  0  0  0  0  0  0  0
  -17.8378   34.6692  -22.9147 O   0  0  0  0  0  0  0  0  0  0  0  0
  -19.1921   33.7824  -21.4242 O   0  0  0  0  0  0  0  0  0  0  0  0
  1  2  2  0
  2  3  1  0
  2  4  1  0
  4  5  1  0
  5  6  1  0
  5  7  1  0
  7  8  1  0
  8  9  1  0
  7 10  2  0
  9 11  1  0
 11 12  2  0
 11 13  1  0
M  END
