
     RDKit          3D

 13 12  0  0  0  0  0  0  0  0999 V2000
  -14.6536   27.6967  -22.6129 O   0  0  0  0  0  0  0  0  0  0  0  0
  -15.5525   28.6175  -22.3159 C   0  0  0  0  0  0  0  0  0  0  0  0
  -16.7146   28.1794  -21.9927 O   0  0  0  0  0  0  0  0  0  0  0  0
  -15.3208   30.0293  -22.3114 C   0  0  0  0  0  0  0  0  0  0  0  0
  -16.5553   30.7603  -22.3228 N   0  0  0  0  0  0  0  0  0  0  0  0
  -17.2061   31.0396  -23.5069 C   0  0  0  0  0  0  0  0  0  0  0  0
  -18.4106   31.7980  -23.2627 C   0  0  0  0  0  0  0  0  0  0  0  0
  -18.1701   33.1059  -22.9542 O   0  0  0  0  0  0  0  0  0  0  0  0
  -19.5255   31.2773  -23.3623 O   0  0  0  0  0  0  0  0  0  0  0  0
  -19.1865   33.9877  -22.4952 C   0  0  0  0  0  0  0  0  0  0  0  0
  -18.8993   34.3181  -21.1142 C   0  0  0  0  0  0  0  0  0  0  0  0
  -19.5149   33.6837  -20.0554 O   0  0  0  0  0  0  0  0  0  0  0  0
  -17.9290   35.1954  -20.7250 O   0  0  0  0  0  0  0  0  0  0  0  0
  1  2  2  0
  2  3  1  0
  2  4  1  0
  4  5  1  0
  5  6  1  0
  6  7  1  0
  7  8  1  0
  7  9  2  0
  8 10  1  0
 10 11  1  0
 11 12  1  0
 11 13  2  0
M  END
