
     RDKit          3D

 17 16  0  0  0  0  0  0  0  0999 V2000
  -16.7588   37.4082  -20.9302 O   0  0  0  0  0  0  0  0  0  0  0  0
  -17.3037   36.3562  -20.2675 P   0  0  0  0  0  0  0  0  0  0  0  0
  -18.4539   36.7697  -19.4139 O   0  0  0  0  0  0  0  0  0  0  0  0
  -18.1018   35.3892  -21.3735 O   0  0  0  0  0  0  0  0  0  0  0  0
  -16.3923   35.5520  -19.3748 O   0  0  0  0  0  0  0  0  0  0  0  0
  -19.0030   34.3483  -21.2249 P   0  0  0  0  0  0  0  0  0  0  0  0
  -18.8721   33.6358  -20.0833 O   0  0  0  0  0  0  0  0  0  0  0  0
  -18.4643   33.3533  -22.3507 O   0  0  0  0  0  0  0  0  0  0  0  0
  -18.3144   31.8947  -22.2736 C   0  0  0  0  0  0  0  0  0  0  0  0
  -20.2354   34.8514  -21.5505 O   0  0  0  0  0  0  0  0  0  0  0  0
  -17.3828   31.2340  -23.1100 C   0  0  0  0  0  0  0  0  0  0  0  0
  -16.7547   32.1098  -23.9751 C   0  0  0  0  0  0  0  0  0  0  0  0
  -15.3917   31.6861  -24.1990 O   0  0  0  0  0  0  0  0  0  0  0  0
  -16.6034   30.3438  -22.3244 O   0  0  0  0  0  0  0  0  0  0  0  0
  -16.0082   29.2027  -22.6807 C   0  0  0  0  0  0  0  0  0  0  0  0
  -15.7170   28.3333  -21.7873 C   0  0  0  0  0  0  0  0  0  0  0  0
  -14.8298   27.3248  -22.2400 O   0  0  0  0  0  0  0  0  0  0  0  0
  1  2  1  0
  2  3  2  0
  2  4  1  0
  2  5  1  0
  4  6  1  0
  6  7  1  0
  6  8  1  0
  8  9  1  0
  6 10  2  0
  9 11  1  0
 11 12  1  0
 12 13  1  0
 11 14  1  0
 14 15  1  0
 15 16  1  0
 16 17  1  0
M  END
