
     RDKit          3D

 17 17  0  0  0  0  0  0  0  0999 V2000
  -16.5971   36.4982  -19.6584 O   0  0  0  0  0  0  0  0  0  0  0  0
  -17.5624   36.6378  -20.6127 P   0  0  0  0  0  0  0  0  0  0  0  0
  -17.4092   37.8920  -21.2843 O   0  0  0  0  0  0  0  0  0  0  0  0
  -17.2903   35.7253  -21.7549 O   0  0  0  0  0  0  0  0  0  0  0  0
  -19.0045   36.3617  -20.1858 O   0  0  0  0  0  0  0  0  0  0  0  0
  -17.0132   36.0194  -23.2294 P   0  0  0  0  0  0  0  0  0  0  0  0
  -15.7378   36.5415  -23.3647 O   0  0  0  0  0  0  0  0  0  0  0  0
  -18.0342   36.9549  -23.8169 O   0  0  0  0  0  0  0  0  0  0  0  0
  -17.2009   34.6743  -23.9944 O   0  0  0  0  0  0  0  0  0  0  0  0
  -16.1668   34.1250  -25.0412 C   0  0  0  0  0  0  0  0  0  0  0  0
  -16.6775   34.3568  -26.4084 C   0  0  0  0  0  0  0  0  0  0  0  0
  -16.7628   33.2991  -27.2255 C   0  0  0  0  0  0  0  0  0  0  0  0
  -18.1498   34.8744  -26.3708 O   0  0  0  0  0  0  0  0  0  0  0  0
  -15.7917   32.7765  -24.9135 C   0  0  0  0  0  0  0  0  0  0  0  0
  -15.7730   33.4066  -28.2949 O   0  0  0  0  0  0  0  0  0  0  0  0
  -16.2753   32.2894  -26.2412 C   0  0  0  0  0  0  0  0  0  0  0  0
  -14.5191   32.5834  -24.6173 O   0  0  0  0  0  0  0  0  0  0  0  0
  1  2  1  0
  2  3  2  0
  2  4  1  0
  2  5  1  0
  4  6  1  0
  6  7  1  0
  6  8  2  0
  6  9  1  0
  9 10  1  0
 10 11  1  0
 11 12  1  0
 11 13  1  0
 10 14  1  0
 12 15  1  0
 12 16  1  0
 14 16  1  0
 14 17  1  0
M  END
