
     RDKit          3D

 18 18  0  0  0  0  0  0  0  0999 V2000
  -13.6055   35.1984  -25.9767 O   0  0  0  0  0  0  0  0  0  0  0  0
  -14.9839   35.0448  -25.7620 C   0  0  0  0  0  0  0  0  0  0  0  0
  -15.5318   35.0090  -24.6149 C   0  0  0  0  0  0  0  0  0  0  0  0
  -16.8346   34.6814  -24.3139 C   0  0  0  0  0  0  0  0  0  0  0  0
  -15.7671   34.5270  -26.9128 C   0  0  0  0  0  0  0  0  0  0  0  0
  -17.6607   34.2322  -25.2871 C   0  0  0  0  0  0  0  0  0  0  0  0
  -15.3323   34.4661  -28.2388 C   0  0  0  0  0  0  0  0  0  0  0  0
  -17.1699   34.1590  -26.7422 C   0  0  0  0  0  0  0  0  0  0  0  0
  -17.3824   34.7670  -22.9309 C   0  0  0  0  0  0  0  0  0  0  0  0
  -17.1384   35.8890  -22.2344 O   0  0  0  0  0  0  0  0  0  0  0  0
  -14.9493   35.4513  -28.7728 O   0  0  0  0  0  0  0  0  0  0  0  0
  -18.1067   33.7479  -22.3741 O   0  0  0  0  0  0  0  0  0  0  0  0
  -15.2004   33.2274  -28.7754 N   0  0  0  0  0  0  0  0  0  0  0  0
  -15.8911   32.1222  -28.2086 C   0  0  0  0  0  0  0  0  0  0  0  0
  -17.8065   36.3353  -20.9528 P   0  0  0  0  0  0  0  0  0  0  0  0
  -17.0543   37.4589  -20.4355 O   0  0  0  0  0  0  0  0  0  0  0  0
  -19.2094   36.8109  -21.3641 O   0  0  0  0  0  0  0  0  0  0  0  0
  -17.8501   35.2428  -19.9287 O   0  0  0  0  0  0  0  0  0  0  0  0
  1  2  1  0
  2  3  1  0
  3  4  2  0
  2  5  2  0
  4  6  1  0
  5  7  1  0
  5  8  1  0
  6  8  2  0
  4  9  1  0
  9 10  1  0
  7 11  2  0
  9 12  2  0
  7 13  1  0
 13 14  1  0
 10 15  1  0
 15 16  1  0
 15 17  2  0
 15 18  1  0
M  END
