
     RDKit          3D

 18 17  0  0  0  0  0  0  0  0999 V2000
  -16.8838   36.5884  -19.6555 O   0  0  0  0  0  0  0  0  0  0  0  0
  -18.0728   36.5381  -20.2681 P   0  0  0  0  0  0  0  0  0  0  0  0
  -18.0415   35.6397  -21.4588 O   0  0  0  0  0  0  0  0  0  0  0  0
  -18.9747   34.5589  -21.8723 P   0  0  0  0  0  0  0  0  0  0  0  0
  -19.7374   34.0167  -20.8063 O   0  0  0  0  0  0  0  0  0  0  0  0
  -18.1634   33.3857  -22.5880 O   0  0  0  0  0  0  0  0  0  0  0  0
  -18.5612   31.8384  -22.5717 P   0  0  0  0  0  0  0  0  0  0  0  0
  -17.6503   31.1356  -23.3372 O   0  0  0  0  0  0  0  0  0  0  0  0
  -18.5635   31.3913  -21.0590 O   0  0  0  0  0  0  0  0  0  0  0  0
  -16.5574   30.3503  -22.8698 C   0  0  0  0  0  0  0  0  0  0  0  0
  -19.9547   31.4529  -23.0377 O   0  0  0  0  0  0  0  0  0  0  0  0
  -19.8104   35.0749  -22.7361 O   0  0  0  0  0  0  0  0  0  0  0  0
  -16.6074   29.1348  -22.3992 C   0  0  0  0  0  0  0  0  0  0  0  0
  -17.9926   38.0523  -20.9518 O   0  0  0  0  0  0  0  0  0  0  0  0
  -15.5555   28.3284  -21.9631 C   0  0  0  0  0  0  0  0  0  0  0  0
  -14.6331   28.0968  -22.8363 O   0  0  0  0  0  0  0  0  0  0  0  0
  -15.5212   27.9724  -20.7782 O   0  0  0  0  0  0  0  0  0  0  0  0
  -19.0033   36.3216  -19.2379 O   0  0  0  0  0  0  0  0  0  0  0  0
  1  2  1  0
  2  3  1  0
  3  4  1  0
  4  5  1  0
  4  6  1  0
  6  7  1  0
  7  8  1  0
  7  9  1  0
  8 10  1  0
  7 11  2  0
  4 12  2  0
 10 13  2  3
  2 14  2  0
 13 15  1  0
 15 16  2  0
 15 17  1  0
  2 18  1  0
M  END
