
     RDKit          3D

 18 18  0  0  0  0  0  0  0  0999 V2000
  -13.8100   27.4772  -22.5954 O   0  0  0  0  0  0  0  0  0  0  0  0
  -15.2296   27.7568  -22.1198 C   0  0  0  0  0  0  0  0  0  0  0  0
  -16.0181   27.0190  -21.8224 O   0  0  0  0  0  0  0  0  0  0  0  0
  -15.6399   29.2358  -22.4122 C   0  0  0  0  0  0  0  0  0  0  0  0
  -16.9561   29.5112  -22.4338 C   0  0  0  0  0  0  0  0  0  0  0  0
  -17.4079   30.8239  -22.7930 C   0  0  0  0  0  0  0  0  0  0  0  0
  -14.7934   30.2702  -22.6018 C   0  0  0  0  0  0  0  0  0  0  0  0
  -18.8925   31.0161  -22.9218 C   0  0  0  0  0  0  0  0  0  0  0  0
  -16.4757   31.7752  -23.1374 C   0  0  0  0  0  0  0  0  0  0  0  0
  -15.1874   31.4942  -23.0194 C   0  0  0  0  0  0  0  0  0  0  0  0
  -17.0045   33.0464  -23.4948 N   0  0  0  0  0  0  0  0  0  0  0  0
  -19.4107   31.4419  -21.8571 O   0  0  0  0  0  0  0  0  0  0  0  0
  -16.4212   33.6076  -24.6223 C   0  0  0  0  0  0  0  0  0  0  0  0
  -16.7242   34.9034  -24.9177 C   0  0  0  0  0  0  0  0  0  0  0  0
  -19.5103   30.8132  -23.9599 O   0  0  0  0  0  0  0  0  0  0  0  0
  -15.8625   35.7192  -24.7274 O   0  0  0  0  0  0  0  0  0  0  0  0
  -16.5460   32.6154  -25.7645 C   0  0  0  0  0  0  0  0  0  0  0  0
  -17.6339   34.9845  -26.0543 O   0  0  0  0  0  0  0  0  0  0  0  0
  1  2  2  0
  2  3  1  0
  2  4  1  0
  4  5  1  0
  5  6  2  0
  4  7  2  0
  6  8  1  0
  6  9  1  0
  7 10  1  0
  9 10  2  0
  9 11  1  0
  8 12  2  0
 11 13  1  0
 13 14  1  0
  8 15  1  0
 14 16  1  0
 13 17  1  0
 14 18  2  0
M  END
