
     RDKit          3D

 18 18  0  0  0  0  0  0  0  0999 V2000
  -20.2906   31.1794  -21.0107 O   0  0  0  0  0  0  0  0  0  0  0  0
  -19.5608   32.3484  -20.9120 P   0  0  0  0  0  0  0  0  0  0  0  0
  -18.4394   32.1566  -22.0136 O   0  0  0  0  0  0  0  0  0  0  0  0
  -18.0446   31.0005  -22.7351 C   0  0  0  0  0  0  0  0  0  0  0  0
  -16.6829   30.8650  -23.1276 C   0  0  0  0  0  0  0  0  0  0  0  0
  -19.0560   32.7207  -19.6918 O   0  0  0  0  0  0  0  0  0  0  0  0
  -16.0685   31.6835  -23.9787 C   0  0  0  0  0  0  0  0  0  0  0  0
  -20.4540   33.5298  -21.5310 O   0  0  0  0  0  0  0  0  0  0  0  0
  -15.9455   29.8043  -22.5076 C   0  0  0  0  0  0  0  0  0  0  0  0
  -14.7106   31.5554  -24.1005 N   0  0  0  0  0  0  0  0  0  0  0  0
  -14.0165   30.6966  -23.5080 C   0  0  0  0  0  0  0  0  0  0  0  0
  -14.6631   29.7141  -22.7504 N   0  0  0  0  0  0  0  0  0  0  0  0
  -16.8147   32.7045  -24.6717 N   0  0  0  0  0  0  0  0  0  0  0  0
  -16.4686   34.0216  -24.7521 C   0  0  0  0  0  0  0  0  0  0  0  0
  -17.3827   34.8600  -25.4750 C   0  0  0  0  0  0  0  0  0  0  0  0
  -17.2801   34.7439  -26.8725 C   0  0  0  0  0  0  0  0  0  0  0  0
  -16.6634   33.5516  -27.4011 C   0  0  0  0  0  0  0  0  0  0  0  0
  -15.7318   33.8192  -28.4336 O   0  0  0  0  0  0  0  0  0  0  0  0
  1  2  1  0
  2  3  1  0
  3  4  1  0
  4  5  1  0
  2  6  2  0
  5  7  1  0
  2  8  1  0
  5  9  2  0
  7 10  2  0
 10 11  1  0
  9 12  1  0
 11 12  2  0
  7 13  1  0
 13 14  1  0
 14 15  1  0
 15 16  1  0
 16 17  1  0
 17 18  1  0
M  END
