
     RDKit          3D

 18 18  0  0  0  0  0  0  0  0999 V2000
  -16.3294   36.6475  -21.0751 O   0  0  0  0  0  0  0  0  0  0  0  0
  -17.5754   36.7516  -20.1463 P   0  0  0  0  0  0  0  0  0  0  0  0
  -17.2829   36.0776  -18.9011 O   0  0  0  0  0  0  0  0  0  0  0  0
  -17.9986   38.1428  -19.9573 O   0  0  0  0  0  0  0  0  0  0  0  0
  -18.7108   35.9880  -20.9870 O   0  0  0  0  0  0  0  0  0  0  0  0
  -18.6539   35.5169  -22.3102 C   0  0  0  0  0  0  0  0  0  0  0  0
  -18.5946   34.0288  -22.4392 C   0  0  0  0  0  0  0  0  0  0  0  0
  -19.0753   33.1583  -21.3994 C   0  0  0  0  0  0  0  0  0  0  0  0
  -19.1323   33.3901  -20.2329 O   0  0  0  0  0  0  0  0  0  0  0  0
  -19.4803   31.8876  -21.7370 O   0  0  0  0  0  0  0  0  0  0  0  0
  -18.0861   33.4865  -23.5364 N   0  0  0  0  0  0  0  0  0  0  0  0
  -17.8266   32.3957  -24.1711 C   0  0  0  0  0  0  0  0  0  0  0  0
  -16.5448   31.8687  -24.2534 C   0  0  0  0  0  0  0  0  0  0  0  0
  -19.0238   31.6935  -24.7956 C   0  0  0  0  0  0  0  0  0  0  0  0
  -18.6893   30.5013  -25.4701 C   0  0  0  0  0  0  0  0  0  0  0  0
  -16.2546   30.6197  -24.7151 C   0  0  0  0  0  0  0  0  0  0  0  0
  -15.0343   30.1488  -24.6884 F   0  0  0  0  0  0  0  0  0  0  0  0
  -17.3555   30.0122  -25.3654 C   0  0  0  0  0  0  0  0  0  0  0  0
  1  2  1  0
  2  3  1  0
  2  4  2  0
  2  5  1  0
  5  6  1  0
  6  7  1  0
  7  8  1  0
  8  9  2  0
  8 10  1  0
  7 11  2  3
 11 12  1  0
 12 13  1  0
 12 14  2  0
 14 15  1  0
 13 16  2  0
 16 17  1  0
 15 18  2  0
 16 18  1  0
M  END
