
     RDKit          3D

 18 19  0  0  0  0  0  0  0  0999 V2000
  -14.6796   27.8089  -22.5806 O   0  0  0  0  0  0  0  0  0  0  0  0
  -15.6569   28.4563  -21.9392 C   0  0  0  0  0  0  0  0  0  0  0  0
  -15.6792   29.8347  -22.1196 C   0  0  0  0  0  0  0  0  0  0  0  0
  -16.6553   27.8595  -21.5324 O   0  0  0  0  0  0  0  0  0  0  0  0
  -15.0149   30.4127  -23.2076 C   0  0  0  0  0  0  0  0  0  0  0  0
  -15.5638   31.3393  -23.8072 C   0  0  0  0  0  0  0  0  0  0  0  0
  -17.0075   31.5008  -23.7532 C   0  0  0  0  0  0  0  0  0  0  0  0
  -17.7852   30.6724  -23.1436 C   0  0  0  0  0  0  0  0  0  0  0  0
  -17.5489   32.5448  -24.6279 N   0  0  0  0  0  0  0  0  0  0  0  0
  -17.2511   29.8379  -22.1888 C   0  0  0  0  0  0  0  0  0  0  0  0
  -18.3120   32.1779  -25.5256 C   0  0  0  0  0  0  0  0  0  0  0  0
  -17.1147   33.9110  -24.4690 C   0  0  0  0  0  0  0  0  0  0  0  0
  -18.6646   32.9524  -26.5633 C   0  0  0  0  0  0  0  0  0  0  0  0
  -19.6266   32.5161  -27.6820 C   0  0  0  0  0  0  0  0  0  0  0  0
  -16.3650   34.2615  -23.4119 O   0  0  0  0  0  0  0  0  0  0  0  0
  -17.3372   34.8118  -25.3801 C   0  0  0  0  0  0  0  0  0  0  0  0
  -16.8896   36.1540  -25.4053 O   0  0  0  0  0  0  0  0  0  0  0  0
  -18.2979   34.5425  -26.4790 C   0  0  0  0  0  0  0  0  0  0  0  0
  1  2  2  0
  2  3  1  0
  2  4  1  0
  3  5  1  0
  5  6  1  0
  6  7  1  0
  7  8  2  0
  7  9  1  0
  3 10  1  0
  8 10  1  0
  9 11  1  0
  9 12  1  0
 11 13  2  0
 13 14  1  0
 12 15  2  0
 12 16  1  0
 16 17  1  0
 13 18  1  0
 16 18  2  0
M  END
