
     RDKit          3D

 18 18  0  0  0  0  0  0  0  0999 V2000
  -14.6536   27.6967  -22.6129 O   0  0  0  0  0  0  0  0  0  0  0  0
  -15.6077   28.3951  -21.9454 C   0  0  0  0  0  0  0  0  0  0  0  0
  -16.5391   27.8452  -21.4375 O   0  0  0  0  0  0  0  0  0  0  0  0
  -15.6164   29.8516  -22.0026 C   0  0  0  0  0  0  0  0  0  0  0  0
  -16.8538   30.4581  -22.2933 C   0  0  0  0  0  0  0  0  0  0  0  0
  -16.8334   31.5297  -23.1732 N   0  0  0  0  0  0  0  0  0  0  0  0
  -15.8246   31.7942  -24.0639 C   0  0  0  0  0  0  0  0  0  0  0  0
  -17.9673   32.4347  -23.0776 C   0  0  0  0  0  0  0  0  0  0  0  0
  -14.7392   31.6840  -23.9979 O   0  0  0  0  0  0  0  0  0  0  0  0
  -16.4180   32.8186  -25.0710 C   0  0  0  0  0  0  0  0  0  0  0  0
  -19.0677   31.9727  -22.3036 C   0  0  0  0  0  0  0  0  0  0  0  0
  -18.0724   33.4897  -24.0247 C   0  0  0  0  0  0  0  0  0  0  0  0
  -17.2443   33.6996  -24.9663 C   0  0  0  0  0  0  0  0  0  0  0  0
  -19.6464   30.8896  -22.2900 O   0  0  0  0  0  0  0  0  0  0  0  0
  -17.4422   34.7607  -26.0226 C   0  0  0  0  0  0  0  0  0  0  0  0
  -18.6569   34.8519  -26.4878 O   0  0  0  0  0  0  0  0  0  0  0  0
  -16.8691   35.9195  -25.7637 O   0  0  0  0  0  0  0  0  0  0  0  0
  -19.2956   32.7831  -21.2545 O   0  0  0  0  0  0  0  0  0  0  0  0
  1  2  2  0
  2  3  1  0
  2  4  1  0
  4  5  1  0
  5  6  1  0
  6  7  1  0
  6  8  1  0
  7  9  2  0
  7 10  1  0
  8 11  1  0
  8 12  2  0
 10 13  2  0
 12 13  1  0
 11 14  2  0
 13 15  1  0
 15 16  1  0
 15 17  1  0
 11 18  1  0
M  END
