
     RDKit          3D

 18 18  0  0  0  0  0  0  0  0999 V2000
  -16.5971   36.4982  -19.6584 O   0  0  0  0  0  0  0  0  0  0  0  0
  -17.3089   36.7198  -20.7402 P   0  0  0  0  0  0  0  0  0  0  0  0
  -17.2935   35.5725  -21.6851 O   0  0  0  0  0  0  0  0  0  0  0  0
  -18.4623   34.6804  -22.1917 C   0  0  0  0  0  0  0  0  0  0  0  0
  -18.7268   37.1742  -20.6351 O   0  0  0  0  0  0  0  0  0  0  0  0
  -16.5624   37.7793  -21.5769 O   0  0  0  0  0  0  0  0  0  0  0  0
  -18.1188   33.7950  -23.1527 C   0  0  0  0  0  0  0  0  0  0  0  0
  -17.1515   34.1916  -24.0882 O   0  0  0  0  0  0  0  0  0  0  0  0
  -17.2728   34.4056  -25.5871 C   0  0  0  0  0  0  0  0  0  0  0  0
  -16.5534   35.4802  -25.9687 C   0  0  0  0  0  0  0  0  0  0  0  0
  -16.9085   33.0770  -26.0720 C   0  0  0  0  0  0  0  0  0  0  0  0
  -19.3464   33.2680  -23.8432 O   0  0  0  0  0  0  0  0  0  0  0  0
  -15.2315   35.2825  -25.6943 O   0  0  0  0  0  0  0  0  0  0  0  0
  -17.7385   32.5186  -27.0382 O   0  0  0  0  0  0  0  0  0  0  0  0
  -16.7454   32.1940  -24.9259 C   0  0  0  0  0  0  0  0  0  0  0  0
  -15.5288   31.4168  -24.8638 O   0  0  0  0  0  0  0  0  0  0  0  0
  -17.0835   32.6166  -23.4765 C   0  0  0  0  0  0  0  0  0  0  0  0
  -17.5968   31.4790  -22.6324 O   0  0  0  0  0  0  0  0  0  0  0  0
  1  2  1  0
  2  3  1  0
  3  4  1  0
  2  5  1  0
  2  6  2  0
  4  7  1  0
  7  8  1  0
  8  9  1  0
  9 10  1  0
  9 11  1  0
  7 12  1  0
 10 13  1  0
 11 14  1  0
 11 15  1  0
 15 16  1  0
  7 17  1  0
 15 17  1  0
 17 18  1  0
M  END
