
     RDKit          3D

 10  9  0  0  0  0  0  0  0  0999 V2000
  -16.3294   36.6475  -21.0751 O   0  0  0  0  0  0  0  0  0  0  0  0
  -17.6679   36.6129  -20.4256 P   0  0  0  0  0  0  0  0  0  0  0  0
  -17.5968   36.1218  -19.0644 O   0  0  0  0  0  0  0  0  0  0  0  0
  -18.6084   35.6961  -21.3290 O   0  0  0  0  0  0  0  0  0  0  0  0
  -18.3293   34.2756  -21.8099 C   0  0  0  0  0  0  0  0  0  0  0  0
  -18.3716   37.9647  -20.4734 O   0  0  0  0  0  0  0  0  0  0  0  0
  -19.2129   33.3801  -21.2543 C   0  0  0  0  0  0  0  0  0  0  0  0
  -19.9834   33.5326  -20.2329 O   0  0  0  0  0  0  0  0  0  0  0  0
  -19.3569   32.1246  -21.7529 O   0  0  0  0  0  0  0  0  0  0  0  0
  -17.5385   34.0669  -22.7439 O   0  0  0  0  0  0  0  0  0  0  0  0
  1  2  1  0
  2  3  1  0
  2  4  1  0
  4  5  1  0
  2  6  2  0
  5  7  1  0
  7  8  1  0
  7  9  2  0
  5 10  2  0
M  END
