
     RDKit          3D

 18 18  0  0  0  0  0  0  0  0999 V2000
  -20.0908   33.2230  -20.2842 O   0  0  0  0  0  0  0  0  0  0  0  0
  -19.3692   34.0030  -20.9429 P   0  0  0  0  0  0  0  0  0  0  0  0
  -18.3531   34.6240  -19.9880 O   0  0  0  0  0  0  0  0  0  0  0  0
  -18.4781   33.2455  -22.0031 O   0  0  0  0  0  0  0  0  0  0  0  0
  -18.4002   31.6648  -22.0831 C   0  0  0  0  0  0  0  0  0  0  0  0
  -20.1421   35.0425  -21.7852 O   0  0  0  0  0  0  0  0  0  0  0  0
  -18.0837   36.3095  -19.8473 P   0  0  0  0  0  0  0  0  0  0  0  0
  -17.9253   31.1886  -23.2339 C   0  0  0  0  0  0  0  0  0  0  0  0
  -16.5855   36.4925  -20.2388 O   0  0  0  0  0  0  0  0  0  0  0  0
  -16.7462   30.5742  -23.0159 C   0  0  0  0  0  0  0  0  0  0  0  0
  -16.4829   29.4316  -22.3452 N   0  0  0  0  0  0  0  0  0  0  0  0
  -15.2370   28.9280  -22.2700 N   0  0  0  0  0  0  0  0  0  0  0  0
  -15.5934   31.1388  -23.6285 N   0  0  0  0  0  0  0  0  0  0  0  0
  -14.4717   30.1215  -23.0912 C   0  0  0  0  0  0  0  0  0  0  0  0
  -14.8518   27.9047  -21.7899 C   0  0  0  0  0  0  0  0  0  0  0  0
  -13.7612   27.4072  -22.4881 O   0  0  0  0  0  0  0  0  0  0  0  0
  -19.0177   36.9674  -20.8582 O   0  0  0  0  0  0  0  0  0  0  0  0
  -18.3494   36.6730  -18.4721 O   0  0  0  0  0  0  0  0  0  0  0  0
  1  2  1  0
  2  3  1  0
  2  4  1  0
  4  5  1  0
  2  6  2  0
  3  7  1  0
  5  8  1  0
  7  9  2  0
  8 10  1  0
 10 11  1  0
 11 12  1  0
 10 13  2  0
 12 14  1  0
 13 14  1  0
 12 15  1  0
 15 16  2  0
  7 17  1  0
  7 18  1  0
M  END
