
     RDKit          3D

 18 18  0  0  0  0  0  0  0  0999 V2000
  -14.0730   27.7746  -22.7153 O   0  0  0  0  0  0  0  0  0  0  0  0
  -15.3941   28.2155  -22.3825 C   0  0  0  0  0  0  0  0  0  0  0  0
  -16.2571   27.4298  -22.1648 O   0  0  0  0  0  0  0  0  0  0  0  0
  -15.5706   29.6695  -21.9797 C   0  0  0  0  0  0  0  0  0  0  0  0
  -15.8062   30.4733  -23.2398 C   0  0  0  0  0  0  0  0  0  0  0  0
  -16.9638   31.3634  -23.1183 C   0  0  0  0  0  0  0  0  0  0  0  0
  -17.0773   32.4206  -24.0064 C   0  0  0  0  0  0  0  0  0  0  0  0
  -18.2388   30.5391  -23.1080 O   0  0  0  0  0  0  0  0  0  0  0  0
  -16.9836   32.1107  -25.2898 O   0  0  0  0  0  0  0  0  0  0  0  0
  -17.4397   33.5888  -23.5685 N   0  0  0  0  0  0  0  0  0  0  0  0
  -17.9136   33.9076  -22.2870 O   0  0  0  0  0  0  0  0  0  0  0  0
  -17.6415   34.8737  -24.4959 C   0  0  0  0  0  0  0  0  0  0  0  0
  -16.3389   35.4789  -24.6047 C   0  0  0  0  0  0  0  0  0  0  0  0
  -18.7082   35.1122  -25.2839 C   0  0  0  0  0  0  0  0  0  0  0  0
  -15.1860   35.2533  -23.8958 O   0  0  0  0  0  0  0  0  0  0  0  0
  -18.7538   36.1411  -26.1992 C   0  0  0  0  0  0  0  0  0  0  0  0
  -16.3046   36.3055  -25.8518 C   0  0  0  0  0  0  0  0  0  0  0  0
  -17.5035   36.6390  -26.5282 C   0  0  0  0  0  0  0  0  0  0  0  0
  1  2  2  0
  2  3  1  0
  2  4  1  0
  4  5  1  0
  5  6  1  0
  6  7  1  0
  6  8  1  0
  7  9  2  0
  7 10  1  0
 10 11  1  0
 10 12  1  0
 12 13  1  0
 12 14  2  0
 13 15  1  0
 14 16  1  0
 13 17  2  0
 16 18  2  0
 17 18  1  0
M  END
