
     RDKit          3D

 18 18  0  0  0  0  0  0  0  0999 V2000
  -20.2906   31.1794  -21.0107 O   0  0  0  0  0  0  0  0  0  0  0  0
  -19.7479   32.4848  -20.7297 P   0  0  0  0  0  0  0  0  0  0  0  0
  -19.4560   32.8041  -19.4502 O   0  0  0  0  0  0  0  0  0  0  0  0
  -18.5358   32.7350  -21.6745 O   0  0  0  0  0  0  0  0  0  0  0  0
  -20.7765   33.5073  -21.3463 O   0  0  0  0  0  0  0  0  0  0  0  0
  -18.0056   31.6111  -22.5566 C   0  0  0  0  0  0  0  0  0  0  0  0
  -18.5086   31.6485  -23.6831 C   0  0  0  0  0  0  0  0  0  0  0  0
  -18.3940   32.7603  -24.4636 N   0  0  0  0  0  0  0  0  0  0  0  0
  -17.1579   33.2774  -24.7594 C   0  0  0  0  0  0  0  0  0  0  0  0
  -19.1038   32.7235  -25.8550 C   0  0  0  0  0  0  0  0  0  0  0  0
  -19.2104   30.6872  -24.1308 O   0  0  0  0  0  0  0  0  0  0  0  0
  -18.1674   32.5801  -26.8698 C   0  0  0  0  0  0  0  0  0  0  0  0
  -17.0405   34.7422  -24.5189 C   0  0  0  0  0  0  0  0  0  0  0  0
  -16.8471   33.0694  -26.2920 C   0  0  0  0  0  0  0  0  0  0  0  0
  -17.4977   35.5153  -25.1387 O   0  0  0  0  0  0  0  0  0  0  0  0
  -16.2274   35.0713  -23.4426 O   0  0  0  0  0  0  0  0  0  0  0  0
  -16.4622   34.3124  -27.0871 C   0  0  0  0  0  0  0  0  0  0  0  0
  -16.1293   33.9008  -28.3698 O   0  0  0  0  0  0  0  0  0  0  0  0
  1  2  1  0
  2  3  1  0
  2  4  1  0
  2  5  2  0
  4  6  1  0
  6  7  1  0
  7  8  1  0
  8  9  1  0
  8 10  1  0
  7 11  2  0
 10 12  1  0
  9 13  1  0
  9 14  1  0
 12 14  1  0
 13 15  2  0
 13 16  1  0
 14 17  1  0
 17 18  1  0
M  END
