
     RDKit          3D

 11 10  0  0  0  0  0  0  0  0999 V2000
  -20.2906   31.1794  -21.0107 O   0  0  0  0  0  0  0  0  0  0  0  0
  -19.7479   32.4848  -20.7297 P   0  0  0  0  0  0  0  0  0  0  0  0
  -19.4560   32.8041  -19.4502 O   0  0  0  0  0  0  0  0  0  0  0  0
  -18.1732   32.4194  -21.4428 O   0  0  0  0  0  0  0  0  0  0  0  0
  -20.4701   33.5495  -21.5536 O   0  0  0  0  0  0  0  0  0  0  0  0
  -17.9998   32.1488  -22.8647 C   0  0  0  0  0  0  0  0  0  0  0  0
  -17.4845   30.7835  -22.9870 C   0  0  0  0  0  0  0  0  0  0  0  0
  -16.0923   30.6340  -22.6736 N   0  0  0  0  0  0  0  0  0  0  0  0
  -15.5678   29.7919  -22.1913 C   0  0  0  0  0  0  0  0  0  0  0  0
  -15.2746   28.6300  -22.7899 C   0  0  0  0  0  0  0  0  0  0  0  0
  -14.9921   27.4986  -22.0153 O   0  0  0  0  0  0  0  0  0  0  0  0
  1  2  1  0
  2  3  1  0
  2  4  1  0
  2  5  2  0
  4  6  1  0
  6  7  1  0
  7  8  1  0
  8  9  1  0
  9 10  1  0
 10 11  1  0
M  END
