
     RDKit          3D

 19 19  0  0  0  0  0  0  0  0999 V2000
  -16.8838   36.5884  -19.6555 O   0  0  0  0  0  0  0  0  0  0  0  0
  -18.0728   36.5381  -20.2681 P   0  0  0  0  0  0  0  0  0  0  0  0
  -18.0415   35.6397  -21.4588 O   0  0  0  0  0  0  0  0  0  0  0  0
  -18.9747   34.5589  -21.8723 P   0  0  0  0  0  0  0  0  0  0  0  0
  -19.7374   34.0167  -20.8063 O   0  0  0  0  0  0  0  0  0  0  0  0
  -18.1634   33.3857  -22.5880 O   0  0  0  0  0  0  0  0  0  0  0  0
  -18.5612   31.8384  -22.5717 P   0  0  0  0  0  0  0  0  0  0  0  0
  -18.1611   37.9862  -20.8683 O   0  0  0  0  0  0  0  0  0  0  0  0
  -17.5845   31.1548  -23.3294 O   0  0  0  0  0  0  0  0  0  0  0  0
  -20.0126   31.7589  -22.9479 O   0  0  0  0  0  0  0  0  0  0  0  0
  -18.2719   31.4261  -21.0959 O   0  0  0  0  0  0  0  0  0  0  0  0
  -19.0587   36.1848  -19.3066 O   0  0  0  0  0  0  0  0  0  0  0  0
  -16.4971   30.4206  -22.9934 C   0  0  0  0  0  0  0  0  0  0  0  0
  -19.7532   35.3013  -22.7074 O   0  0  0  0  0  0  0  0  0  0  0  0
  -15.3315   31.0676  -23.4150 C   0  0  0  0  0  0  0  0  0  0  0  0
  -14.1163   30.5070  -23.0172 C   0  0  0  0  0  0  0  0  0  0  0  0
  -16.4035   29.1522  -22.5835 C   0  0  0  0  0  0  0  0  0  0  0  0
  -15.4863   28.6039  -22.3327 C   0  0  0  0  0  0  0  0  0  0  0  0
  -14.1380   29.0869  -22.5189 C   0  0  0  0  0  0  0  0  0  0  0  0
  1  2  1  0
  2  3  1  0
  3  4  1  0
  4  5  1  0
  4  6  1  0
  6  7  1  0
  2  8  1  0
  7  9  1  0
  7 10  2  0
  7 11  1  0
  2 12  2  0
  9 13  1  0
  4 14  2  0
 13 15  2  0
 15 16  1  0
 13 17  1  0
 17 18  2  0
 16 19  2  0
 18 19  1  0
M  END
