
     RDKit          3D

 19 19  0  0  0  0  0  0  0  0999 V2000
  -14.6536   27.6967  -22.6129 O   0  0  0  0  0  0  0  0  0  0  0  0
  -15.6077   28.3951  -21.9454 C   0  0  0  0  0  0  0  0  0  0  0  0
  -16.5391   27.8452  -21.4375 O   0  0  0  0  0  0  0  0  0  0  0  0
  -15.6164   29.8516  -22.0026 C   0  0  0  0  0  0  0  0  0  0  0  0
  -16.8538   30.4581  -22.2933 C   0  0  0  0  0  0  0  0  0  0  0  0
  -16.8334   31.5297  -23.1732 N   0  0  0  0  0  0  0  0  0  0  0  0
  -18.0751   32.1501  -23.5743 C   0  0  0  0  0  0  0  0  0  0  0  0
  -17.8813   33.2623  -24.4072 C   0  0  0  0  0  0  0  0  0  0  0  0
  -18.9014   31.0195  -24.1580 O   0  0  0  0  0  0  0  0  0  0  0  0
  -17.6403   34.4008  -23.7698 O   0  0  0  0  0  0  0  0  0  0  0  0
  -17.3291   35.6533  -24.2677 C   0  0  0  0  0  0  0  0  0  0  0  0
  -18.9369   33.6354  -25.3841 C   0  0  0  0  0  0  0  0  0  0  0  0
  -18.3989   35.9542  -25.3230 C   0  0  0  0  0  0  0  0  0  0  0  0
  -18.1225   37.1837  -25.9256 O   0  0  0  0  0  0  0  0  0  0  0  0
  -18.3992   34.7818  -26.3184 C   0  0  0  0  0  0  0  0  0  0  0  0
  -19.2038   35.0383  -27.4224 O   0  0  0  0  0  0  0  0  0  0  0  0
  -19.2626   32.5438  -26.4073 O   0  0  0  0  0  0  0  0  0  0  0  0
  -16.0336   35.8779  -24.5878 O   0  0  0  0  0  0  0  0  0  0  0  0
  -15.1879   34.7803  -25.1147 C   0  0  0  0  0  0  0  0  0  0  0  0
  1  2  2  0
  2  3  1  0
  2  4  1  0
  4  5  1  0
  5  6  1  0
  6  7  1  0
  7  8  1  0
  7  9  1  0
  8 10  1  0
 10 11  1  0
  8 12  1  0
 11 13  1  0
 13 14  1  0
 12 15  1  0
 13 15  1  0
 15 16  1  0
 12 17  1  0
 11 18  1  0
 18 19  1  0
M  END
