
     RDKit          3D

 11 10  0  0  0  0  0  0  0  0999 V2000
  -13.9068   27.4191  -22.4828 O   0  0  0  0  0  0  0  0  0  0  0  0
  -15.3495   27.7848  -22.0657 C   0  0  0  0  0  0  0  0  0  0  0  0
  -15.5811   29.1982  -22.2749 C   0  0  0  0  0  0  0  0  0  0  0  0
  -14.6812   30.0874  -22.6066 O   0  0  0  0  0  0  0  0  0  0  0  0
  -16.1379   27.0070  -21.7184 O   0  0  0  0  0  0  0  0  0  0  0  0
  -16.9110   29.6006  -22.1522 C   0  0  0  0  0  0  0  0  0  0  0  0
  -17.1166   30.9002  -22.5973 C   0  0  0  0  0  0  0  0  0  0  0  0
  -18.4354   31.2951  -22.7821 C   0  0  0  0  0  0  0  0  0  0  0  0
  -18.5384   32.6991  -22.5626 C   0  0  0  0  0  0  0  0  0  0  0  0
  -18.2286   33.7092  -23.2059 O   0  0  0  0  0  0  0  0  0  0  0  0
  -19.3394   32.8966  -21.3073 O   0  0  0  0  0  0  0  0  0  0  0  0
  1  2  2  0
  2  3  1  0
  3  4  1  0
  2  5  1  0
  3  6  2  3
  6  7  1  0
  7  8  1  0
  8  9  1  0
  9 10  2  0
  9 11  1  0
M  END
