
     RDKit          3D

 19 18  0  0  0  0  0  0  0  0999 V2000
  -16.8103   36.3040  -19.7981 O   0  0  0  0  0  0  0  0  0  0  0  0
  -17.1344   36.7803  -20.9423 P   0  0  0  0  0  0  0  0  0  0  0  0
  -17.2665   35.6686  -21.9477 O   0  0  0  0  0  0  0  0  0  0  0  0
  -18.6414   37.3315  -20.8871 O   0  0  0  0  0  0  0  0  0  0  0  0
  -16.2304   37.7671  -21.4442 O   0  0  0  0  0  0  0  0  0  0  0  0
  -18.3708   34.7556  -22.3012 C   0  0  0  0  0  0  0  0  0  0  0  0
  -18.1138   33.8152  -23.2571 C   0  0  0  0  0  0  0  0  0  0  0  0
  -17.0172   34.1181  -24.0615 O   0  0  0  0  0  0  0  0  0  0  0  0
  -18.0499   32.3477  -22.9323 C   0  0  0  0  0  0  0  0  0  0  0  0
  -19.1622   31.6752  -22.3899 O   0  0  0  0  0  0  0  0  0  0  0  0
  -16.9941   34.9783  -25.2331 C   0  0  0  0  0  0  0  0  0  0  0  0
  -17.4524   31.4553  -23.8912 C   0  0  0  0  0  0  0  0  0  0  0  0
  -18.2361   31.1961  -24.7245 O   0  0  0  0  0  0  0  0  0  0  0  0
  -16.6261   34.1858  -26.3442 C   0  0  0  0  0  0  0  0  0  0  0  0
  -15.8030   34.6127  -27.3144 O   0  0  0  0  0  0  0  0  0  0  0  0
  -16.8997   32.8766  -26.4360 N   0  0  0  0  0  0  0  0  0  0  0  0
  -16.8156   30.2729  -23.3013 C   0  0  0  0  0  0  0  0  0  0  0  0
  -17.4010   29.3623  -22.8822 O   0  0  0  0  0  0  0  0  0  0  0  0
  -15.4615   30.3696  -22.9932 O   0  0  0  0  0  0  0  0  0  0  0  0
  1  2  1  0
  2  3  1  0
  2  4  2  0
  2  5  1  0
  3  6  1  0
  6  7  1  0
  7  8  1  0
  7  9  1  0
  9 10  1  0
  8 11  1  0
  9 12  1  0
 12 13  1  0
 11 14  1  0
 14 15  2  0
 14 16  1  0
 12 17  1  0
 17 18  2  0
 17 19  1  0
M  END
