
     RDKit          3D

 19 19  0  0  0  0  0  0  0  0999 V2000
  -14.6536   27.6967  -22.6129 O   0  0  0  0  0  0  0  0  0  0  0  0
  -15.6077   28.3951  -21.9454 C   0  0  0  0  0  0  0  0  0  0  0  0
  -16.5391   27.8452  -21.4375 O   0  0  0  0  0  0  0  0  0  0  0  0
  -15.6164   29.8516  -22.0026 C   0  0  0  0  0  0  0  0  0  0  0  0
  -16.8538   30.4581  -22.2933 C   0  0  0  0  0  0  0  0  0  0  0  0
  -16.8334   31.5297  -23.1732 N   0  0  0  0  0  0  0  0  0  0  0  0
  -18.0751   32.1501  -23.5743 C   0  0  0  0  0  0  0  0  0  0  0  0
  -17.8813   33.2623  -24.4072 C   0  0  0  0  0  0  0  0  0  0  0  0
  -18.9014   31.0195  -24.1580 O   0  0  0  0  0  0  0  0  0  0  0  0
  -17.6403   34.4008  -23.7698 O   0  0  0  0  0  0  0  0  0  0  0  0
  -17.3291   35.6533  -24.2677 C   0  0  0  0  0  0  0  0  0  0  0  0
  -18.9369   33.6354  -25.3841 C   0  0  0  0  0  0  0  0  0  0  0  0
  -18.3989   35.9542  -25.3230 C   0  0  0  0  0  0  0  0  0  0  0  0
  -18.6456   34.8557  -26.1923 O   0  0  0  0  0  0  0  0  0  0  0  0
  -17.1587   36.5978  -23.1828 C   0  0  0  0  0  0  0  0  0  0  0  0
  -16.2452   37.1354  -22.8715 O   0  0  0  0  0  0  0  0  0  0  0  0
  -18.4032   37.0762  -22.5963 O   0  0  0  0  0  0  0  0  0  0  0  0
  -19.1653   32.7427  -26.7432 C   0  0  0  0  0  0  0  0  0  0  0  0
  -20.3189   32.2896  -26.8790 O   0  0  0  0  0  0  0  0  0  0  0  0
  1  2  2  0
  2  3  1  0
  2  4  1  0
  4  5  1  0
  5  6  1  0
  6  7  1  0
  7  8  1  0
  7  9  1  0
  8 10  1  0
 10 11  1  0
  8 12  1  0
 11 13  1  0
 12 14  1  0
 13 14  1  0
 11 15  1  0
 15 16  2  0
 15 17  1  0
 12 18  1  0
 18 19  1  0
M  END
