
     RDKit          3D

 19 19  0  0  0  0  0  0  0  0999 V2000
  -16.5971   36.4982  -19.6584 O   0  0  0  0  0  0  0  0  0  0  0  0
  -17.5624   36.6378  -20.6127 P   0  0  0  0  0  0  0  0  0  0  0  0
  -17.4092   37.8920  -21.2843 O   0  0  0  0  0  0  0  0  0  0  0  0
  -17.2903   35.7253  -21.7549 O   0  0  0  0  0  0  0  0  0  0  0  0
  -16.9328   35.9753  -23.2039 C   0  0  0  0  0  0  0  0  0  0  0  0
  -17.0175   35.0112  -24.1482 C   0  0  0  0  0  0  0  0  0  0  0  0
  -15.9199   34.8127  -24.9044 C   0  0  0  0  0  0  0  0  0  0  0  0
  -19.0109   36.3266  -20.1847 O   0  0  0  0  0  0  0  0  0  0  0  0
  -17.2853   33.6930  -23.4490 O   0  0  0  0  0  0  0  0  0  0  0  0
  -17.4585   32.6183  -24.2096 C   0  0  0  0  0  0  0  0  0  0  0  0
  -16.3506   32.5377  -25.1513 C   0  0  0  0  0  0  0  0  0  0  0  0
  -17.7015   31.4043  -23.3941 C   0  0  0  0  0  0  0  0  0  0  0  0
  -16.7275   30.8495  -22.7739 N   0  0  0  0  0  0  0  0  0  0  0  0
  -16.2639   29.9780  -22.3759 C   0  0  0  0  0  0  0  0  0  0  0  0
  -16.0892   33.7261  -25.8533 N   0  0  0  0  0  0  0  0  0  0  0  0
  -17.0112   34.0721  -26.9812 C   0  0  0  0  0  0  0  0  0  0  0  0
  -16.3847   33.8154  -28.1839 C   0  0  0  0  0  0  0  0  0  0  0  0
  -14.9444   29.5352  -22.3997 O   0  0  0  0  0  0  0  0  0  0  0  0
  -15.5334   34.8931  -28.5288 C   0  0  0  0  0  0  0  0  0  0  0  0
  1  2  1  0
  2  3  2  0
  2  4  1  0
  4  5  1  0
  5  6  1  0
  6  7  1  0
  2  8  1  0
  6  9  1  0
  9 10  1  0
 10 11  1  0
 10 12  1  0
 12 13  1  0
 13 14  1  0
  7 15  1  0
 11 15  1  0
 15 16  1  0
 16 17  1  0
 14 18  2  0
 17 19  1  0
M  END
