
     RDKit          3D

 12 11  0  0  0  0  0  0  0  0999 V2000
  -17.1613   35.9747  -19.3840 O   0  0  0  0  0  0  0  0  0  0  0  0
  -18.1433   36.2873  -20.3335 P   0  0  0  0  0  0  0  0  0  0  0  0
  -18.1439   35.2489  -21.3880 O   0  0  0  0  0  0  0  0  0  0  0  0
  -19.2921   34.1392  -21.5341 P   0  0  0  0  0  0  0  0  0  0  0  0
  -19.6582   33.5693  -20.2756 O   0  0  0  0  0  0  0  0  0  0  0  0
  -19.3758   36.6716  -19.7200 O   0  0  0  0  0  0  0  0  0  0  0  0
  -20.3407   34.8638  -22.3192 O   0  0  0  0  0  0  0  0  0  0  0  0
  -18.8042   33.0163  -22.5184 O   0  0  0  0  0  0  0  0  0  0  0  0
  -17.3198   37.4993  -21.0333 O   0  0  0  0  0  0  0  0  0  0  0  0
  -18.3700   31.6543  -22.1503 C   0  0  0  0  0  0  0  0  0  0  0  0
  -19.1804   30.7239  -22.7557 C   0  0  0  0  0  0  0  0  0  0  0  0
  -18.5534   30.3855  -23.9636 O   0  0  0  0  0  0  0  0  0  0  0  0
  1  2  1  0
  2  3  1  0
  3  4  1  0
  4  5  1  0
  2  6  1  0
  4  7  2  0
  4  8  1  0
  2  9  2  0
  8 10  1  0
 10 11  1  0
 11 12  1  0
M  END
