
     RDKit          3D

 20 20  0  0  0  0  0  0  0  0999 V2000
  -20.2906   31.1794  -21.0107 O   0  0  0  0  0  0  0  0  0  0  0  0
  -19.5608   32.3484  -20.9120 P   0  0  0  0  0  0  0  0  0  0  0  0
  -18.4394   32.1566  -22.0136 O   0  0  0  0  0  0  0  0  0  0  0  0
  -18.0446   31.0005  -22.7351 C   0  0  0  0  0  0  0  0  0  0  0  0
  -16.6829   30.8650  -23.1276 C   0  0  0  0  0  0  0  0  0  0  0  0
  -19.0560   32.7207  -19.6918 O   0  0  0  0  0  0  0  0  0  0  0  0
  -16.0685   31.6835  -23.9787 C   0  0  0  0  0  0  0  0  0  0  0  0
  -20.4540   33.5298  -21.5310 O   0  0  0  0  0  0  0  0  0  0  0  0
  -15.9455   29.8043  -22.5076 C   0  0  0  0  0  0  0  0  0  0  0  0
  -14.7106   31.5554  -24.1005 N   0  0  0  0  0  0  0  0  0  0  0  0
  -14.0165   30.6966  -23.5080 C   0  0  0  0  0  0  0  0  0  0  0  0
  -14.6358   29.7814  -22.7680 N   0  0  0  0  0  0  0  0  0  0  0  0
  -16.4996   28.8579  -21.5481 N   0  0  0  0  0  0  0  0  0  0  0  0
  -16.8015   32.6934  -24.6801 N   0  0  0  0  0  0  0  0  0  0  0  0
  -16.2958   33.4776  -25.6740 C   0  0  0  0  0  0  0  0  0  0  0  0
  -16.8059   33.0655  -27.0155 C   0  0  0  0  0  0  0  0  0  0  0  0
  -16.2785   34.9050  -25.3858 C   0  0  0  0  0  0  0  0  0  0  0  0
  -15.8249   35.4696  -24.6098 O   0  0  0  0  0  0  0  0  0  0  0  0
  -16.9318   35.6137  -26.3730 O   0  0  0  0  0  0  0  0  0  0  0  0
  -16.0199   33.3647  -28.1900 C   0  0  0  0  0  0  0  0  0  0  0  0
  1  2  1  0
  2  3  1  0
  3  4  1  0
  4  5  1  0
  2  6  2  0
  5  7  1  0
  2  8  1  0
  5  9  2  0
  7 10  2  0
 10 11  1  0
  9 12  1  0
 11 12  2  0
  9 13  1  0
  7 14  1  0
 14 15  1  0
 15 16  1  0
 15 17  1  0
 17 18  2  0
 17 19  1  0
 16 20  1  0
M  END
