
     RDKit          3D

 20 20  0  0  0  0  0  0  0  0999 V2000
  -20.2906   31.1794  -21.0107 O   0  0  0  0  0  0  0  0  0  0  0  0
  -19.5608   32.3484  -20.9120 P   0  0  0  0  0  0  0  0  0  0  0  0
  -18.4394   32.1566  -22.0136 O   0  0  0  0  0  0  0  0  0  0  0  0
  -18.0446   31.0005  -22.7351 C   0  0  0  0  0  0  0  0  0  0  0  0
  -16.6829   30.8650  -23.1276 C   0  0  0  0  0  0  0  0  0  0  0  0
  -19.0560   32.7207  -19.6918 O   0  0  0  0  0  0  0  0  0  0  0  0
  -20.3768   33.5635  -21.5431 O   0  0  0  0  0  0  0  0  0  0  0  0
  -16.1185   31.7079  -24.0555 C   0  0  0  0  0  0  0  0  0  0  0  0
  -14.8295   31.9436  -24.1862 N   0  0  0  0  0  0  0  0  0  0  0  0
  -14.0878   31.0356  -23.5144 C   0  0  0  0  0  0  0  0  0  0  0  0
  -14.6327   30.1400  -22.6567 N   0  0  0  0  0  0  0  0  0  0  0  0
  -17.1617   32.4976  -24.8993 N   0  0  0  0  0  0  0  0  0  0  0  0
  -16.8285   33.8249  -25.2077 C   0  0  0  0  0  0  0  0  0  0  0  0
  -15.9103   30.0433  -22.4493 C   0  0  0  0  0  0  0  0  0  0  0  0
  -16.3578   28.9557  -21.5915 N   0  0  0  0  0  0  0  0  0  0  0  0
  -17.3264   34.1602  -26.5615 C   0  0  0  0  0  0  0  0  0  0  0  0
  -17.1567   34.9994  -24.3934 C   0  0  0  0  0  0  0  0  0  0  0  0
  -16.4336   34.1259  -27.5769 O   0  0  0  0  0  0  0  0  0  0  0  0
  -18.2706   35.5153  -24.5289 O   0  0  0  0  0  0  0  0  0  0  0  0
  -16.1485   35.4184  -23.5963 O   0  0  0  0  0  0  0  0  0  0  0  0
  1  2  1  0
  2  3  1  0
  3  4  1  0
  4  5  1  0
  2  6  2  0
  2  7  1  0
  5  8  1  0
  8  9  2  0
  9 10  1  0
 10 11  2  0
  8 12  1  0
 12 13  1  0
  5 14  2  0
 11 14  1  0
 14 15  1  0
 13 16  1  0
 13 17  1  0
 16 18  1  0
 17 19  2  0
 17 20  1  0
M  END
