
     RDKit          3D

 20 21  0  0  0  0  0  0  0  0999 V2000
  -20.2906   31.1794  -21.0107 O   0  0  0  0  0  0  0  0  0  0  0  0
  -19.7479   32.4848  -20.7297 P   0  0  0  0  0  0  0  0  0  0  0  0
  -19.4560   32.8041  -19.4502 O   0  0  0  0  0  0  0  0  0  0  0  0
  -18.1732   32.4194  -21.4428 O   0  0  0  0  0  0  0  0  0  0  0  0
  -20.4701   33.5495  -21.5536 O   0  0  0  0  0  0  0  0  0  0  0  0
  -17.9998   32.1488  -22.8647 C   0  0  0  0  0  0  0  0  0  0  0  0
  -18.0089   32.9770  -23.7287 C   0  0  0  0  0  0  0  0  0  0  0  0
  -18.3565   34.4132  -23.5715 C   0  0  0  0  0  0  0  0  0  0  0  0
  -17.3918   32.6881  -25.0090 C   0  0  0  0  0  0  0  0  0  0  0  0
  -17.7663   30.7316  -23.0879 C   0  0  0  0  0  0  0  0  0  0  0  0
  -17.6255   35.4204  -24.1414 N   0  0  0  0  0  0  0  0  0  0  0  0
  -17.0660   31.3922  -25.3412 C   0  0  0  0  0  0  0  0  0  0  0  0
  -17.1724   30.5099  -24.3244 C   0  0  0  0  0  0  0  0  0  0  0  0
  -17.3885   33.7276  -26.2035 C   0  0  0  0  0  0  0  0  0  0  0  0
  -17.7459   36.6518  -23.7835 C   0  0  0  0  0  0  0  0  0  0  0  0
  -16.9831   37.0043  -22.7011 O   0  0  0  0  0  0  0  0  0  0  0  0
  -16.6482   35.0715  -25.2626 C   0  0  0  0  0  0  0  0  0  0  0  0
  -16.4364   33.5173  -27.2645 C   0  0  0  0  0  0  0  0  0  0  0  0
  -18.1609   37.5818  -24.5964 O   0  0  0  0  0  0  0  0  0  0  0  0
  -16.0741   34.6358  -28.0167 O   0  0  0  0  0  0  0  0  0  0  0  0
  1  2  1  0
  2  3  1  0
  2  4  1  0
  2  5  2  0
  4  6  1  0
  6  7  2  0
  7  8  1  0
  7  9  1  0
  6 10  1  0
  8 11  1  0
  9 12  2  0
 10 13  2  0
 12 13  1  0
  9 14  1  0
 11 15  1  0
 15 16  1  0
 11 17  1  0
 14 17  1  0
 14 18  1  0
 15 19  2  0
 18 20  1  0
M  END
