
     RDKit          3D

 12 11  0  0  0  0  0  0  0  0999 V2000
  -19.7998   30.8753  -21.0964 O   0  0  0  0  0  0  0  0  0  0  0  0
  -19.3032   32.1211  -21.2226 P   0  0  0  0  0  0  0  0  0  0  0  0
  -20.3908   32.9816  -21.9225 O   0  0  0  0  0  0  0  0  0  0  0  0
  -18.1031   32.0585  -22.1969 O   0  0  0  0  0  0  0  0  0  0  0  0
  -17.6053   31.2744  -23.1778 C   0  0  0  0  0  0  0  0  0  0  0  0
  -18.8459   32.7176  -19.9182 O   0  0  0  0  0  0  0  0  0  0  0  0
  -16.3673   30.9517  -23.3359 C   0  0  0  0  0  0  0  0  0  0  0  0
  -15.5603   31.7667  -23.9977 O   0  0  0  0  0  0  0  0  0  0  0  0
  -15.7893   29.8368  -22.8528 N   0  0  0  0  0  0  0  0  0  0  0  0
  -14.8362   29.2205  -23.0171 O   0  0  0  0  0  0  0  0  0  0  0  0
  -14.6120   27.9685  -22.2651 C   0  0  0  0  0  0  0  0  0  0  0  0
  -18.4140   31.7223  -24.3980 C   0  0  0  0  0  0  0  0  0  0  0  0
  1  2  2  0
  2  3  1  0
  2  4  1  0
  4  5  1  0
  2  6  1  0
  5  7  1  0
  7  8  2  0
  7  9  1  0
  9 10  1  0
 10 11  1  0
  5 12  1  0
M  END
