
     RDKit          3D

 20 20  0  0  0  0  0  0  0  0999 V2000
  -16.5971   36.4982  -19.6584 O   0  0  0  0  0  0  0  0  0  0  0  0
  -17.3089   36.7198  -20.7402 P   0  0  0  0  0  0  0  0  0  0  0  0
  -16.7376   37.7947  -21.4685 O   0  0  0  0  0  0  0  0  0  0  0  0
  -17.2747   35.6236  -21.7812 O   0  0  0  0  0  0  0  0  0  0  0  0
  -18.8295   36.8803  -20.4457 O   0  0  0  0  0  0  0  0  0  0  0  0
  -17.2864   35.7145  -23.2731 P   0  0  0  0  0  0  0  0  0  0  0  0
  -18.2748   36.5767  -23.6950 O   0  0  0  0  0  0  0  0  0  0  0  0
  -17.5540   34.2624  -23.7254 O   0  0  0  0  0  0  0  0  0  0  0  0
  -15.9921   36.1696  -23.7940 O   0  0  0  0  0  0  0  0  0  0  0  0
  -17.0669   33.6093  -24.8360 C   0  0  0  0  0  0  0  0  0  0  0  0
  -17.6728   32.4123  -25.1248 C   0  0  0  0  0  0  0  0  0  0  0  0
  -15.5763   33.5221  -24.7653 C   0  0  0  0  0  0  0  0  0  0  0  0
  -17.2755   31.4164  -24.1236 O   0  0  0  0  0  0  0  0  0  0  0  0
  -17.9694   31.9557  -26.3658 C   0  0  0  0  0  0  0  0  0  0  0  0
  -15.2679   32.3332  -24.1925 C   0  0  0  0  0  0  0  0  0  0  0  0
  -18.5507   32.8411  -27.2830 O   0  0  0  0  0  0  0  0  0  0  0  0
  -14.0070   32.0643  -23.9679 O   0  0  0  0  0  0  0  0  0  0  0  0
  -16.1075   31.4069  -23.6718 C   0  0  0  0  0  0  0  0  0  0  0  0
  -15.6589   30.2203  -23.1585 N   0  0  0  0  0  0  0  0  0  0  0  0
  -16.2248   29.6315  -22.0695 O   0  0  0  0  0  0  0  0  0  0  0  0
  1  2  1  0
  2  3  1  0
  2  4  1  0
  2  5  2  0
  4  6  1  0
  6  7  1  0
  6  8  1  0
  6  9  2  0
  8 10  1  0
 10 11  1  0
 10 12  1  0
 11 13  1  0
 11 14  1  0
 12 15  1  0
 14 16  1  0
 15 17  2  0
 13 18  1  0
 15 18  1  0
 18 19  1  0
 19 20  1  0
M  END
