
     RDKit          3D

 21 22  0  0  0  0  0  0  0  0999 V2000
  -16.7588   37.4082  -20.9302 O   0  0  0  0  0  0  0  0  0  0  0  0
  -17.3037   36.3562  -20.2675 P   0  0  0  0  0  0  0  0  0  0  0  0
  -18.4539   36.7697  -19.4139 O   0  0  0  0  0  0  0  0  0  0  0  0
  -17.8317   35.1875  -21.2290 O   0  0  0  0  0  0  0  0  0  0  0  0
  -19.2816   35.0969  -21.7310 C   0  0  0  0  0  0  0  0  0  0  0  0
  -19.5190   33.8163  -22.3858 C   0  0  0  0  0  0  0  0  0  0  0  0
  -16.5094   35.7723  -19.3076 O   0  0  0  0  0  0  0  0  0  0  0  0
  -18.9641   32.6431  -21.5772 C   0  0  0  0  0  0  0  0  0  0  0  0
  -18.8262   33.4709  -23.6018 O   0  0  0  0  0  0  0  0  0  0  0  0
  -18.6528   31.5517  -22.3473 C   0  0  0  0  0  0  0  0  0  0  0  0
  -19.6763   30.7122  -22.4719 O   0  0  0  0  0  0  0  0  0  0  0  0
  -18.3364   32.2078  -23.7049 C   0  0  0  0  0  0  0  0  0  0  0  0
  -16.9023   32.1782  -24.0128 C   0  0  0  0  0  0  0  0  0  0  0  0
  -19.7570   32.2754  -20.4054 O   0  0  0  0  0  0  0  0  0  0  0  0
  -16.3984   33.2439  -24.7573 N   0  0  0  0  0  0  0  0  0  0  0  0
  -15.6829   34.2202  -24.5591 C   0  0  0  0  0  0  0  0  0  0  0  0
  -16.1624   31.1956  -23.5426 O   0  0  0  0  0  0  0  0  0  0  0  0
  -16.6380   33.1306  -26.2897 C   0  0  0  0  0  0  0  0  0  0  0  0
  -16.2402   34.2753  -26.9668 C   0  0  0  0  0  0  0  0  0  0  0  0
  -16.4694   34.6023  -28.1986 C   0  0  0  0  0  0  0  0  0  0  0  0
  -15.8038   35.2150  -25.9897 C   0  0  0  0  0  0  0  0  0  0  0  0
  1  2  1  0
  2  3  1  0
  2  4  1  0
  4  5  1  0
  5  6  1  0
  2  7  2  0
  6  8  1  0
  6  9  1  0
  8 10  1  0
 10 11  1  0
  9 12  1  0
 10 12  1  0
 12 13  1  0
  8 14  1  0
 13 15  1  0
 15 16  1  0
 13 17  2  0
 15 18  1  0
 18 19  1  0
 19 20  1  0
 16 21  1  0
 19 21  1  0
M  END
