
     RDKit          3D

 21 21  0  0  0  0  0  0  0  0999 V2000
  -20.0791   31.4795  -21.0099 O   0  0  0  0  0  0  0  0  0  0  0  0
  -19.7073   32.8128  -20.6979 P   0  0  0  0  0  0  0  0  0  0  0  0
  -19.2529   32.9977  -19.4441 O   0  0  0  0  0  0  0  0  0  0  0  0
  -18.6226   33.2522  -21.7553 O   0  0  0  0  0  0  0  0  0  0  0  0
  -20.7435   33.8563  -21.0573 O   0  0  0  0  0  0  0  0  0  0  0  0
  -18.1331   32.2462  -22.7796 C   0  0  0  0  0  0  0  0  0  0  0  0
  -17.9507   30.9298  -22.4294 C   0  0  0  0  0  0  0  0  0  0  0  0
  -17.7165   32.8207  -23.9668 C   0  0  0  0  0  0  0  0  0  0  0  0
  -17.2372   30.1479  -23.4004 C   0  0  0  0  0  0  0  0  0  0  0  0
  -16.7511   30.7605  -24.5660 C   0  0  0  0  0  0  0  0  0  0  0  0
  -16.9909   32.1440  -24.8035 C   0  0  0  0  0  0  0  0  0  0  0  0
  -16.5138   32.7792  -26.1613 C   0  0  0  0  0  0  0  0  0  0  0  0
  -16.9822   28.8107  -23.0664 O   0  0  0  0  0  0  0  0  0  0  0  0
  -16.3998   34.2145  -26.0522 C   0  0  0  0  0  0  0  0  0  0  0  0
  -15.5713   34.7286  -25.0783 C   0  0  0  0  0  0  0  0  0  0  0  0
  -15.9488   34.7135  -27.4565 C   0  0  0  0  0  0  0  0  0  0  0  0
  -15.9182   28.4620  -22.2232 C   0  0  0  0  0  0  0  0  0  0  0  0
  -14.4462   35.1379  -25.3791 O   0  0  0  0  0  0  0  0  0  0  0  0
  -14.9631   27.8932  -22.7554 O   0  0  0  0  0  0  0  0  0  0  0  0
  -16.1505   28.5544  -20.9674 O   0  0  0  0  0  0  0  0  0  0  0  0
  -15.8200   34.4832  -23.8578 O   0  0  0  0  0  0  0  0  0  0  0  0
  1  2  1  0
  2  3  1  0
  2  4  1  0
  2  5  2  0
  4  6  1  0
  6  7  2  0
  6  8  1  0
  7  9  1  0
  9 10  2  0
  8 11  2  0
 10 11  1  0
 11 12  1  0
  9 13  1  0
 12 14  1  0
 14 15  1  0
 14 16  1  0
 13 17  1  0
 15 18  2  0
 17 19  2  0
 17 20  1  0
 15 21  1  0
M  END
