
     RDKit          3D

 21 20  0  0  0  0  0  0  0  0999 V2000
  -20.0908   33.2230  -20.2842 O   0  0  0  0  0  0  0  0  0  0  0  0
  -19.3692   34.0030  -20.9429 P   0  0  0  0  0  0  0  0  0  0  0  0
  -18.3531   34.6240  -19.9880 O   0  0  0  0  0  0  0  0  0  0  0  0
  -18.4781   33.2455  -22.0031 O   0  0  0  0  0  0  0  0  0  0  0  0
  -18.4002   31.6648  -22.0831 C   0  0  0  0  0  0  0  0  0  0  0  0
  -20.1421   35.0425  -21.7852 O   0  0  0  0  0  0  0  0  0  0  0  0
  -18.0837   36.3095  -19.8473 P   0  0  0  0  0  0  0  0  0  0  0  0
  -17.9253   31.1886  -23.2339 C   0  0  0  0  0  0  0  0  0  0  0  0
  -16.5855   36.4925  -20.2388 O   0  0  0  0  0  0  0  0  0  0  0  0
  -18.3948   36.8692  -18.6453 O   0  0  0  0  0  0  0  0  0  0  0  0
  -16.7260   30.5876  -23.0251 N   0  0  0  0  0  0  0  0  0  0  0  0
  -15.4981   31.2005  -23.5004 C   0  0  0  0  0  0  0  0  0  0  0  0
  -16.5091   29.3372  -22.5176 C   0  0  0  0  0  0  0  0  0  0  0  0
  -15.4853   32.3243  -24.3461 N   0  0  0  0  0  0  0  0  0  0  0  0
  -16.5701   33.2531  -24.5860 C   0  0  0  0  0  0  0  0  0  0  0  0
  -17.2600   28.5699  -22.0269 O   0  0  0  0  0  0  0  0  0  0  0  0
  -18.8253   37.0527  -21.0792 O   0  0  0  0  0  0  0  0  0  0  0  0
  -14.4196   30.7538  -23.3721 O   0  0  0  0  0  0  0  0  0  0  0  0
  -15.1121   28.9090  -22.0728 O   0  0  0  0  0  0  0  0  0  0  0  0
  -16.1816   34.4732  -25.1834 C   0  0  0  0  0  0  0  0  0  0  0  0
  -15.7736   34.4038  -26.4925 O   0  0  0  0  0  0  0  0  0  0  0  0
  1  2  1  0
  2  3  1  0
  2  4  1  0
  4  5  1  0
  2  6  2  0
  3  7  1  0
  5  8  1  0
  7  9  2  0
  7 10  1  0
  8 11  1  0
 11 12  1  0
 11 13  1  0
 12 14  1  0
 14 15  1  0
 13 16  2  0
  7 17  1  0
 12 18  2  0
 13 19  1  0
 15 20  1  0
 20 21  1  0
M  END
