
     RDKit          3D

 21 21  0  0  0  0  0  0  0  0999 V2000
  -17.1613   35.9747  -19.3840 O   0  0  0  0  0  0  0  0  0  0  0  0
  -17.5008   36.5426  -20.5884 P   0  0  0  0  0  0  0  0  0  0  0  0
  -17.8173   35.4807  -21.5976 O   0  0  0  0  0  0  0  0  0  0  0  0
  -17.5620   35.1871  -23.0058 P   0  0  0  0  0  0  0  0  0  0  0  0
  -17.9716   33.8989  -23.3546 O   0  0  0  0  0  0  0  0  0  0  0  0
  -17.3842   32.9032  -24.2163 C   0  0  0  0  0  0  0  0  0  0  0  0
  -16.3756   37.3625  -21.1471 O   0  0  0  0  0  0  0  0  0  0  0  0
  -17.4322   33.1270  -25.4470 C   0  0  0  0  0  0  0  0  0  0  0  0
  -16.3311   32.7216  -26.2076 O   0  0  0  0  0  0  0  0  0  0  0  0
  -18.8136   37.4073  -20.4459 O   0  0  0  0  0  0  0  0  0  0  0  0
  -18.3951   36.2512  -23.9057 O   0  0  0  0  0  0  0  0  0  0  0  0
  -16.3273   33.5634  -27.4542 C   0  0  0  0  0  0  0  0  0  0  0  0
  -16.1377   35.5950  -23.4572 O   0  0  0  0  0  0  0  0  0  0  0  0
  -17.8950   31.5544  -23.7676 C   0  0  0  0  0  0  0  0  0  0  0  0
  -18.6836   32.5028  -26.0194 C   0  0  0  0  0  0  0  0  0  0  0  0
  -19.6861   33.1900  -26.5887 O   0  0  0  0  0  0  0  0  0  0  0  0
  -18.1684   31.2442  -22.4126 O   0  0  0  0  0  0  0  0  0  0  0  0
  -19.3304   31.8519  -24.7257 C   0  0  0  0  0  0  0  0  0  0  0  0
  -19.9682   30.6044  -24.9861 O   0  0  0  0  0  0  0  0  0  0  0  0
  -16.3525   34.9873  -27.3372 C   0  0  0  0  0  0  0  0  0  0  0  0
  -15.3458   35.6301  -28.0113 O   0  0  0  0  0  0  0  0  0  0  0  0
  1  2  1  0
  2  3  1  0
  3  4  1  0
  4  5  1  0
  5  6  1  0
  2  7  2  0
  6  8  1  0
  8  9  1  0
  2 10  1  0
  4 11  2  0
  9 12  1  0
  4 13  1  0
  6 14  1  0
  8 15  1  0
 15 16  1  0
 14 17  1  0
 14 18  1  0
 15 18  1  0
 18 19  1  0
 12 20  1  0
 20 21  1  0
M  END
