
     RDKit          3D

 21 21  0  0  0  0  0  0  0  0999 V2000
  -20.2906   31.1794  -21.0107 O   0  0  0  0  0  0  0  0  0  0  0  0
  -19.7479   32.4848  -20.7297 P   0  0  0  0  0  0  0  0  0  0  0  0
  -19.4560   32.8041  -19.4502 O   0  0  0  0  0  0  0  0  0  0  0  0
  -18.5358   32.7350  -21.6745 O   0  0  0  0  0  0  0  0  0  0  0  0
  -20.7765   33.5073  -21.3463 O   0  0  0  0  0  0  0  0  0  0  0  0
  -18.0056   31.6111  -22.5566 C   0  0  0  0  0  0  0  0  0  0  0  0
  -18.5086   31.6485  -23.6831 C   0  0  0  0  0  0  0  0  0  0  0  0
  -18.3940   32.7603  -24.4636 N   0  0  0  0  0  0  0  0  0  0  0  0
  -17.1579   33.2774  -24.7594 C   0  0  0  0  0  0  0  0  0  0  0  0
  -19.1038   32.7235  -25.8550 C   0  0  0  0  0  0  0  0  0  0  0  0
  -19.2104   30.6872  -24.1308 O   0  0  0  0  0  0  0  0  0  0  0  0
  -17.1757   34.6095  -25.3692 C   0  0  0  0  0  0  0  0  0  0  0  0
  -16.6313   31.2154  -22.3159 C   0  0  0  0  0  0  0  0  0  0  0  0
  -16.3668   29.7976  -22.2585 C   0  0  0  0  0  0  0  0  0  0  0  0
  -19.2756   34.0349  -26.3694 C   0  0  0  0  0  0  0  0  0  0  0  0
  -18.0142   34.5921  -26.5925 C   0  0  0  0  0  0  0  0  0  0  0  0
  -15.8754   35.2930  -25.5744 C   0  0  0  0  0  0  0  0  0  0  0  0
  -15.0199   35.3111  -24.8089 O   0  0  0  0  0  0  0  0  0  0  0  0
  -15.7110   35.3498  -26.9176 O   0  0  0  0  0  0  0  0  0  0  0  0
  -15.2266   29.3518  -22.5432 O   0  0  0  0  0  0  0  0  0  0  0  0
  -17.2694   29.0147  -22.3177 O   0  0  0  0  0  0  0  0  0  0  0  0
  1  2  1  0
  2  3  1  0
  2  4  1  0
  2  5  2  0
  4  6  1  0
  6  7  1  0
  7  8  1  0
  8  9  1  0
  8 10  1  0
  7 11  2  0
  9 12  1  0
  6 13  1  0
 13 14  1  0
 10 15  1  0
 12 16  1  0
 15 16  1  0
 12 17  1  0
 17 18  1  0
 17 19  2  0
 14 20  1  0
 14 21  2  0
M  END
