
     RDKit          3D

 21 21  0  0  0  0  0  0  0  0999 V2000
  -20.4804   33.0726  -20.5650 O   0  0  0  0  0  0  0  0  0  0  0  0
  -19.4185   33.8770  -21.0003 P   0  0  0  0  0  0  0  0  0  0  0  0
  -18.5360   34.3905  -20.0193 O   0  0  0  0  0  0  0  0  0  0  0  0
  -18.6084   33.0371  -22.1078 O   0  0  0  0  0  0  0  0  0  0  0  0
  -20.0449   35.0017  -21.8649 O   0  0  0  0  0  0  0  0  0  0  0  0
  -18.6907   31.4900  -22.3883 P   0  0  0  0  0  0  0  0  0  0  0  0
  -17.7711   31.3005  -23.4599 O   0  0  0  0  0  0  0  0  0  0  0  0
  -17.7292   35.8001  -20.1250 P   0  0  0  0  0  0  0  0  0  0  0  0
  -18.6029   36.8815  -20.3530 O   0  0  0  0  0  0  0  0  0  0  0  0
  -20.0159   31.0957  -22.4794 O   0  0  0  0  0  0  0  0  0  0  0  0
  -16.3972   31.0385  -23.3606 C   0  0  0  0  0  0  0  0  0  0  0  0
  -17.8885   30.9639  -21.1286 O   0  0  0  0  0  0  0  0  0  0  0  0
  -15.6469   31.8738  -24.1632 C   0  0  0  0  0  0  0  0  0  0  0  0
  -16.3430   32.8279  -25.0112 C   0  0  0  0  0  0  0  0  0  0  0  0
  -16.2580   32.6792  -26.2947 O   0  0  0  0  0  0  0  0  0  0  0  0
  -17.0141   35.7078  -21.5461 O   0  0  0  0  0  0  0  0  0  0  0  0
  -16.6222   36.0586  -19.2078 O   0  0  0  0  0  0  0  0  0  0  0  0
  -14.5259   32.4416  -23.5365 O   0  0  0  0  0  0  0  0  0  0  0  0
  -15.9927   30.0934  -22.5105 C   0  0  0  0  0  0  0  0  0  0  0  0
  -15.9385   30.0872  -21.2860 C   0  0  0  0  0  0  0  0  0  0  0  0
  -17.2660   30.1001  -20.7193 C   0  0  0  0  0  0  0  0  0  0  0  0
  1  2  1  0
  2  3  1  0
  2  4  1  0
  2  5  2  0
  4  6  1  0
  6  7  1  0
  3  8  1  0
  8  9  2  0
  6 10  2  0
  7 11  1  0
  6 12  1  0
 11 13  1  0
 13 14  1  0
 14 15  1  0
  8 16  1  0
  8 17  1  0
 13 18  1  0
 11 19  2  0
 19 20  1  0
 12 21  1  0
 20 21  1  0
M  END
