
     RDKit          3D

 21 21  0  0  0  0  0  0  0  0999 V2000
  -20.2906   31.1794  -21.0107 O   0  0  0  0  0  0  0  0  0  0  0  0
  -19.7479   32.4848  -20.7297 P   0  0  0  0  0  0  0  0  0  0  0  0
  -19.4560   32.8041  -19.4502 O   0  0  0  0  0  0  0  0  0  0  0  0
  -18.5358   32.7350  -21.6745 O   0  0  0  0  0  0  0  0  0  0  0  0
  -20.7765   33.5073  -21.3463 O   0  0  0  0  0  0  0  0  0  0  0  0
  -18.0056   31.6111  -22.5566 C   0  0  0  0  0  0  0  0  0  0  0  0
  -18.5086   31.6485  -23.6831 C   0  0  0  0  0  0  0  0  0  0  0  0
  -18.3940   32.7603  -24.4636 N   0  0  0  0  0  0  0  0  0  0  0  0
  -17.1579   33.2774  -24.7594 C   0  0  0  0  0  0  0  0  0  0  0  0
  -19.1038   32.7235  -25.8550 C   0  0  0  0  0  0  0  0  0  0  0  0
  -19.2104   30.6872  -24.1308 O   0  0  0  0  0  0  0  0  0  0  0  0
  -17.1757   34.6095  -25.3692 C   0  0  0  0  0  0  0  0  0  0  0  0
  -16.6313   31.2154  -22.3159 C   0  0  0  0  0  0  0  0  0  0  0  0
  -15.8721   35.1283  -25.7381 C   0  0  0  0  0  0  0  0  0  0  0  0
  -16.0684   30.5651  -23.3037 O   0  0  0  0  0  0  0  0  0  0  0  0
  -15.6519   35.3343  -27.0442 O   0  0  0  0  0  0  0  0  0  0  0  0
  -15.3374   29.3606  -22.8566 C   0  0  0  0  0  0  0  0  0  0  0  0
  -18.0473   34.4415  -26.6270 O   0  0  0  0  0  0  0  0  0  0  0  0
  -15.1988   35.5369  -24.8189 O   0  0  0  0  0  0  0  0  0  0  0  0
  -15.6810   28.6291  -22.0124 O   0  0  0  0  0  0  0  0  0  0  0  0
  -19.0649   33.6672  -26.6311 C   0  0  0  0  0  0  0  0  0  0  0  0
  1  2  1  0
  2  3  1  0
  2  4  1  0
  2  5  2  0
  4  6  1  0
  6  7  1  0
  7  8  1  0
  8  9  1  0
  8 10  1  0
  7 11  2  0
  9 12  1  0
  6 13  1  0
 12 14  1  0
 13 15  1  0
 14 16  2  0
 15 17  1  0
 12 18  1  0
 14 19  1  0
 17 20  2  0
 10 21  1  0
 18 21  1  0
M  END
