
     RDKit          3D

 21 21  0  0  0  0  0  0  0  0999 V2000
  -16.8838   36.5884  -19.6555 O   0  0  0  0  0  0  0  0  0  0  0  0
  -18.0728   36.5381  -20.2681 P   0  0  0  0  0  0  0  0  0  0  0  0
  -18.0415   35.6397  -21.4588 O   0  0  0  0  0  0  0  0  0  0  0  0
  -18.9747   34.5589  -21.8723 P   0  0  0  0  0  0  0  0  0  0  0  0
  -19.7374   34.0167  -20.8063 O   0  0  0  0  0  0  0  0  0  0  0  0
  -18.1634   33.3857  -22.5880 O   0  0  0  0  0  0  0  0  0  0  0  0
  -18.3664   37.9721  -20.7403 O   0  0  0  0  0  0  0  0  0  0  0  0
  -19.0826   36.0150  -19.2667 O   0  0  0  0  0  0  0  0  0  0  0  0
  -20.0268   35.1375  -22.7753 O   0  0  0  0  0  0  0  0  0  0  0  0
  -18.4105   31.9532  -22.5162 P   0  0  0  0  0  0  0  0  0  0  0  0
  -17.4191   31.3435  -23.3657 O   0  0  0  0  0  0  0  0  0  0  0  0
  -16.4326   30.5721  -22.9870 C   0  0  0  0  0  0  0  0  0  0  0  0
  -15.2308   30.9846  -23.3561 C   0  0  0  0  0  0  0  0  0  0  0  0
  -16.6615   29.4095  -22.1841 C   0  0  0  0  0  0  0  0  0  0  0  0
  -19.8824   31.6479  -22.8618 O   0  0  0  0  0  0  0  0  0  0  0  0
  -14.2818   30.3453  -23.0071 C   0  0  0  0  0  0  0  0  0  0  0  0
  -18.1473   31.6243  -21.0341 O   0  0  0  0  0  0  0  0  0  0  0  0
  -15.0951   32.1814  -24.3104 C   0  0  0  0  0  0  0  0  0  0  0  0
  -14.4499   29.2105  -22.5353 C   0  0  0  0  0  0  0  0  0  0  0  0
  -15.5720   28.6652  -22.0052 C   0  0  0  0  0  0  0  0  0  0  0  0
  -13.3865   28.0962  -22.3045 O   0  0  0  0  0  0  0  0  0  0  0  0
  1  2  1  0
  2  3  1  0
  3  4  1  0
  4  5  1  0
  4  6  1  0
  2  7  2  0
  2  8  1  0
  4  9  2  0
  6 10  1  0
 10 11  1  0
 11 12  1  0
 12 13  2  0
 12 14  1  0
 10 15  2  0
 13 16  1  0
 10 17  1  0
 13 18  1  0
 16 19  2  0
 14 20  2  0
 19 20  1  0
 19 21  1  0
M  END
