
     RDKit          3D

 21 21  0  0  0  0  0  0  0  0999 V2000
  -16.5971   36.4982  -19.6584 O   0  0  0  0  0  0  0  0  0  0  0  0
  -17.3089   36.7198  -20.7402 P   0  0  0  0  0  0  0  0  0  0  0  0
  -16.7376   37.7947  -21.4685 O   0  0  0  0  0  0  0  0  0  0  0  0
  -17.2747   35.6236  -21.7812 O   0  0  0  0  0  0  0  0  0  0  0  0
  -18.8295   36.8803  -20.4457 O   0  0  0  0  0  0  0  0  0  0  0  0
  -17.2864   35.7145  -23.2731 P   0  0  0  0  0  0  0  0  0  0  0  0
  -18.2748   36.5767  -23.6950 O   0  0  0  0  0  0  0  0  0  0  0  0
  -17.5540   34.2624  -23.7254 O   0  0  0  0  0  0  0  0  0  0  0  0
  -15.9921   36.1696  -23.7940 O   0  0  0  0  0  0  0  0  0  0  0  0
  -17.0669   33.6093  -24.8360 C   0  0  0  0  0  0  0  0  0  0  0  0
  -17.6728   32.4123  -25.1248 C   0  0  0  0  0  0  0  0  0  0  0  0
  -17.2754   31.3962  -24.2129 O   0  0  0  0  0  0  0  0  0  0  0  0
  -18.1698   30.8900  -23.2420 C   0  0  0  0  0  0  0  0  0  0  0  0
  -18.3482   31.9740  -26.3231 C   0  0  0  0  0  0  0  0  0  0  0  0
  -17.5135   30.3140  -22.1900 O   0  0  0  0  0  0  0  0  0  0  0  0
  -16.1338   29.8443  -22.3532 C   0  0  0  0  0  0  0  0  0  0  0  0
  -18.2391   32.8549  -27.4166 C   0  0  0  0  0  0  0  0  0  0  0  0
  -15.8852   28.5061  -22.0278 C   0  0  0  0  0  0  0  0  0  0  0  0
  -14.8489   27.8249  -22.6161 O   0  0  0  0  0  0  0  0  0  0  0  0
  -17.6685   34.1595  -27.2804 C   0  0  0  0  0  0  0  0  0  0  0  0
  -17.4479   34.6411  -26.0691 C   0  0  0  0  0  0  0  0  0  0  0  0
  1  2  1  0
  2  3  1  0
  2  4  1  0
  2  5  2  0
  4  6  1  0
  6  7  1  0
  6  8  1  0
  6  9  2  0
  8 10  1  0
 10 11  1  0
 11 12  1  0
 12 13  1  0
 11 14  2  0
 13 15  1  0
 15 16  1  0
 14 17  1  0
 16 18  1  0
 18 19  1  0
 17 20  2  0
 10 21  1  0
 20 21  1  0
M  END
