
     RDKit          3D

  3  2  0  0  0  0  0  0  0  0999 V2000
  -12.9019   26.9580  -21.8663 O   0  0  0  0  0  0  0  0  0  0  0  0
  -12.1948   26.5123  -21.2612 C   0  0  0  0  0  0  0  0  0  0  0  0
  -12.1331   25.2401  -20.7231 O   0  0  0  0  0  0  0  0  0  0  0  0
  1  2  2  0
  2  3  1  0
M  END
