
     RDKit          3D

  4  3  0  0  0  0  0  0  0  0999 V2000
  -13.3302   34.0354  -34.2022 C   0  0  0  0  0  0  0  0  0  0  0  0
  -13.6672   33.5869  -33.1780 C   0  0  0  0  0  0  0  0  0  0  0  0
  -13.7872   32.9030  -31.9182 C   0  0  0  0  0  0  0  0  0  0  0  0
  -13.2582   34.7161  -35.4248 C   0  0  0  0  0  0  0  0  0  0  0  0
  1  2  3  0
  2  3  1  0
  1  4  1  0
M  END
