
     RDKit          3D

 21 20  0  0  0  0  0  0  0  0999 V2000
  -20.8478   33.4248  -20.3065 O   0  0  0  0  0  0  0  0  0  0  0  0
  -19.4409   33.1702  -20.6718 P   0  0  0  0  0  0  0  0  0  0  0  0
  -18.8028   34.3226  -20.8283 O   0  0  0  0  0  0  0  0  0  0  0  0
  -18.9379   32.0517  -19.8356 O   0  0  0  0  0  0  0  0  0  0  0  0
  -19.1917   35.9962  -21.1701 P   0  0  0  0  0  0  0  0  0  0  0  0
  -19.6224   32.5431  -22.1942 O   0  0  0  0  0  0  0  0  0  0  0  0
  -17.7758   36.5228  -21.3313 O   0  0  0  0  0  0  0  0  0  0  0  0
  -17.3168   37.7204  -22.2023 P   0  0  0  0  0  0  0  0  0  0  0  0
  -19.9873   35.9516  -22.3087 O   0  0  0  0  0  0  0  0  0  0  0  0
  -18.4401   32.5144  -23.1411 C   0  0  0  0  0  0  0  0  0  0  0  0
  -16.2467   37.1902  -22.9309 O   0  0  0  0  0  0  0  0  0  0  0  0
  -19.7749   36.6948  -20.0689 O   0  0  0  0  0  0  0  0  0  0  0  0
  -16.8536   38.7320  -21.0986 O   0  0  0  0  0  0  0  0  0  0  0  0
  -18.2059   31.4670  -23.7001 C   0  0  0  0  0  0  0  0  0  0  0  0
  -16.7455   31.0782  -23.7341 C   0  0  0  0  0  0  0  0  0  0  0  0
  -19.1274   30.6013  -23.9858 O   0  0  0  0  0  0  0  0  0  0  0  0
  -18.5116   38.1938  -22.9155 O   0  0  0  0  0  0  0  0  0  0  0  0
  -15.8191   32.0706  -24.1873 O   0  0  0  0  0  0  0  0  0  0  0  0
  -16.3646   30.4693  -22.4712 C   0  0  0  0  0  0  0  0  0  0  0  0
  -15.4287   29.3415  -22.5855 O   0  0  0  0  0  0  0  0  0  0  0  0
  -15.5144   28.0268  -22.0072 C   0  0  0  0  0  0  0  0  0  0  0  0
  1  2  1  0
  2  3  1  0
  2  4  2  0
  3  5  1  0
  2  6  1  0
  5  7  1  0
  7  8  1  0
  5  9  2  0
  6 10  1  0
  8 11  1  0
  5 12  1  0
  8 13  1  0
 10 14  1  0
 14 15  1  0
 14 16  1  0
  8 17  2  0
 15 18  1  0
 15 19  1  0
 19 20  1  0
 20 21  1  0
M  END
