
     RDKit          3D

 21 21  0  0  0  0  0  0  0  0999 V2000
  -16.3208   36.4791  -20.3630 O   0  0  0  0  0  0  0  0  0  0  0  0
  -17.6533   36.8110  -20.6212 P   0  0  0  0  0  0  0  0  0  0  0  0
  -18.0451   35.8662  -21.8615 O   0  0  0  0  0  0  0  0  0  0  0  0
  -17.7271   35.9597  -23.3426 P   0  0  0  0  0  0  0  0  0  0  0  0
  -18.0426   34.7049  -23.9737 O   0  0  0  0  0  0  0  0  0  0  0  0
  -16.1975   36.3002  -23.3274 O   0  0  0  0  0  0  0  0  0  0  0  0
  -18.4897   36.1575  -19.4052 O   0  0  0  0  0  0  0  0  0  0  0  0
  -17.2606   34.1270  -25.0309 C   0  0  0  0  0  0  0  0  0  0  0  0
  -18.6396   37.1640  -23.7382 O   0  0  0  0  0  0  0  0  0  0  0  0
  -17.9768   38.1461  -20.8895 O   0  0  0  0  0  0  0  0  0  0  0  0
  -17.8777   34.1711  -26.2974 C   0  0  0  0  0  0  0  0  0  0  0  0
  -17.2030   34.8248  -27.3058 C   0  0  0  0  0  0  0  0  0  0  0  0
  -16.3271   33.0006  -24.7268 C   0  0  0  0  0  0  0  0  0  0  0  0
  -18.2249   32.7790  -26.7722 O   0  0  0  0  0  0  0  0  0  0  0  0
  -16.3556   34.0050  -28.0846 O   0  0  0  0  0  0  0  0  0  0  0  0
  -17.1967   32.0805  -23.8834 N   0  0  0  0  0  0  0  0  0  0  0  0
  -18.4873   32.0512  -23.6118 C   0  0  0  0  0  0  0  0  0  0  0  0
  -16.5522   30.9084  -23.3699 C   0  0  0  0  0  0  0  0  0  0  0  0
  -17.5076   30.1695  -22.6328 N   0  0  0  0  0  0  0  0  0  0  0  0
  -15.2503   30.6133  -23.4999 N   0  0  0  0  0  0  0  0  0  0  0  0
  -18.6481   30.8470  -22.8143 N   0  0  0  0  0  0  0  0  0  0  0  0
  1  2  1  0
  2  3  1  0
  3  4  1  0
  4  5  1  0
  4  6  2  0
  2  7  1  0
  5  8  1  0
  4  9  1  0
  2 10  2  0
  8 11  1  0
 11 12  1  0
  8 13  1  0
 11 14  1  0
 12 15  1  0
 13 16  1  0
 16 17  1  0
 16 18  1  0
 18 19  2  0
 18 20  1  0
 17 21  2  0
 19 21  1  0
M  END
