
     RDKit          3D

 21 21  0  0  0  0  0  0  0  0999 V2000
  -20.7815   33.7161  -21.0409 O   0  0  0  0  0  0  0  0  0  0  0  0
  -19.5668   33.3291  -20.7166 P   0  0  0  0  0  0  0  0  0  0  0  0
  -18.9088   32.9682  -22.0472 O   0  0  0  0  0  0  0  0  0  0  0  0
  -18.2856   31.5267  -22.4398 C   0  0  0  0  0  0  0  0  0  0  0  0
  -18.6670   34.4248  -20.2355 O   0  0  0  0  0  0  0  0  0  0  0  0
  -17.9783   35.7963  -21.0212 P   0  0  0  0  0  0  0  0  0  0  0  0
  -19.4625   32.3427  -19.6216 O   0  0  0  0  0  0  0  0  0  0  0  0
  -16.7622   36.1884  -20.2912 O   0  0  0  0  0  0  0  0  0  0  0  0
  -17.6189   31.5337  -23.5945 C   0  0  0  0  0  0  0  0  0  0  0  0
  -17.5978   35.3412  -22.4045 O   0  0  0  0  0  0  0  0  0  0  0  0
  -16.3371   30.9746  -23.5394 O   0  0  0  0  0  0  0  0  0  0  0  0
  -17.6458   32.9065  -24.3410 C   0  0  0  0  0  0  0  0  0  0  0  0
  -16.5432   36.1507  -23.2408 C   0  0  0  0  0  0  0  0  0  0  0  0
  -19.2542   36.7115  -20.9597 O   0  0  0  0  0  0  0  0  0  0  0  0
  -15.9199   30.0156  -22.6326 C   0  0  0  0  0  0  0  0  0  0  0  0
  -15.0629   30.1933  -21.8284 O   0  0  0  0  0  0  0  0  0  0  0  0
  -16.3345   33.1909  -24.7594 O   0  0  0  0  0  0  0  0  0  0  0  0
  -16.5030   28.7488  -22.7414 N   0  0  0  0  0  0  0  0  0  0  0  0
  -16.1672   34.6354  -25.2049 C   0  0  0  0  0  0  0  0  0  0  0  0
  -16.4137   35.3662  -24.3749 C   0  0  0  0  0  0  0  0  0  0  0  0
  -15.9388   27.7080  -22.2397 C   0  0  0  0  0  0  0  0  0  0  0  0
  1  2  1  0
  2  3  1  0
  3  4  1  0
  2  5  1  0
  5  6  1  0
  2  7  2  0
  6  8  2  0
  4  9  1  0
  6 10  1  0
  9 11  1  0
  9 12  1  0
 10 13  1  0
  6 14  1  0
 11 15  1  0
 15 16  2  0
 12 17  1  0
 15 18  1  0
 17 19  1  0
 13 20  1  0
 19 20  2  0
 18 21  1  0
M  END
