
     RDKit          3D

 21 22  0  0  0  0  0  0  0  0999 V2000
  -14.3493   27.6553  -22.1415 O   0  0  0  0  0  0  0  0  0  0  0  0
  -15.2705   28.4641  -22.4008 C   0  0  0  0  0  0  0  0  0  0  0  0
  -16.4936   28.1084  -22.5464 N   0  0  0  0  0  0  0  0  0  0  0  0
  -15.1731   29.9178  -22.1583 N   0  0  0  0  0  0  0  0  0  0  0  0
  -17.2958   29.1651  -22.6181 N   0  0  0  0  0  0  0  0  0  0  0  0
  -16.6971   30.3098  -22.4628 C   0  0  0  0  0  0  0  0  0  0  0  0
  -17.0968   31.6501  -22.4395 C   0  0  0  0  0  0  0  0  0  0  0  0
  -16.9027   26.7732  -22.4622 C   0  0  0  0  0  0  0  0  0  0  0  0
  -16.9059   32.3219  -23.7166 C   0  0  0  0  0  0  0  0  0  0  0  0
  -18.5490   31.7535  -22.0980 C   0  0  0  0  0  0  0  0  0  0  0  0
  -18.8738   32.9786  -21.2946 C   0  0  0  0  0  0  0  0  0  0  0  0
  -18.7825   33.9925  -21.5795 O   0  0  0  0  0  0  0  0  0  0  0  0
  -17.6969   32.3429  -24.6840 N   0  0  0  0  0  0  0  0  0  0  0  0
  -17.2664   33.1482  -25.7984 C   0  0  0  0  0  0  0  0  0  0  0  0
  -15.6866   33.1411  -24.0016 C   0  0  0  0  0  0  0  0  0  0  0  0
  -17.9528   33.4733  -27.0207 C   0  0  0  0  0  0  0  0  0  0  0  0
  -16.1408   33.9528  -25.3812 C   0  0  0  0  0  0  0  0  0  0  0  0
  -19.4653   32.5992  -20.0775 O   0  0  0  0  0  0  0  0  0  0  0  0
  -19.3050   33.2260  -27.0322 C   0  0  0  0  0  0  0  0  0  0  0  0
  -17.2401   34.0042  -28.0632 C   0  0  0  0  0  0  0  0  0  0  0  0
  -15.9049   34.2295  -28.1392 O   0  0  0  0  0  0  0  0  0  0  0  0
  1  2  2  0
  2  3  1  0
  2  4  1  0
  3  5  1  0
  4  6  1  0
  5  6  2  0
  6  7  1  0
  3  8  1  0
  7  9  1  0
  7 10  1  0
 10 11  1  0
 11 12  2  0
  9 13  2  0
 13 14  1  0
  9 15  1  0
 14 16  1  0
 14 17  2  0
 15 17  1  0
 11 18  1  0
 16 19  1  0
 16 20  2  3
 20 21  1  0
M  END
