
     RDKit          3D

  9  8  0  0  0  0  0  0  0  0999 V2000
  -12.7438   27.1351  -21.8473 O   0  0  0  0  0  0  0  0  0  0  0  0
  -14.0074   27.3102  -21.8041 C   0  0  0  0  0  0  0  0  0  0  0  0
  -14.9750   26.9699  -21.0659 C   0  0  0  0  0  0  0  0  0  0  0  0
  -15.0272   25.9013  -20.3977 O   0  0  0  0  0  0  0  0  0  0  0  0
  -16.1666   27.7218  -21.1230 C   0  0  0  0  0  0  0  0  0  0  0  0
  -14.3645   27.9405  -23.0494 O   0  0  0  0  0  0  0  0  0  0  0  0
  -12.1655   25.9018  -21.2115 C   0  0  0  0  0  0  0  0  0  0  0  0
  -17.2582   26.9688  -21.6146 C   0  0  0  0  0  0  0  0  0  0  0  0
  -17.0758   25.6674  -21.9759 C   0  0  0  0  0  0  0  0  0  0  0  0
  1  2  1  0
  2  3  1  0
  3  4  2  0
  3  5  1  0
  2  6  2  0
  1  7  1  0
  5  8  2  3
  8  9  1  0
M  END
