
     RDKit          3D

 22 22  0  0  0  0  0  0  0  0999 V2000
  -13.8270   27.2793  -22.5350 O   0  0  0  0  0  0  0  0  0  0  0  0
  -14.7754   27.3195  -21.6751 C   0  0  0  0  0  0  0  0  0  0  0  0
  -15.6914   28.4187  -22.1434 C   0  0  0  0  0  0  0  0  0  0  0  0
  -15.2083   29.8087  -22.3192 C   0  0  0  0  0  0  0  0  0  0  0  0
  -14.1839   30.0790  -22.7076 O   0  0  0  0  0  0  0  0  0  0  0  0
  -16.1562   30.7762  -21.8315 N   0  0  0  0  0  0  0  0  0  0  0  0
  -17.0080   31.4519  -22.7513 C   0  0  0  0  0  0  0  0  0  0  0  0
  -16.8943   31.4605  -24.0921 C   0  0  0  0  0  0  0  0  0  0  0  0
  -18.3107   31.7188  -22.2133 C   0  0  0  0  0  0  0  0  0  0  0  0
  -15.5236   31.1428  -24.7045 O   0  0  0  0  0  0  0  0  0  0  0  0
  -18.6556   31.8083  -20.8362 O   0  0  0  0  0  0  0  0  0  0  0  0
  -18.8976   33.1150  -20.1993 P   0  0  0  0  0  0  0  0  0  0  0  0
  -19.3551   32.0068  -23.1261 C   0  0  0  0  0  0  0  0  0  0  0  0
  -20.4197   33.3421  -20.1604 O   0  0  0  0  0  0  0  0  0  0  0  0
  -18.5208   34.3842  -21.1101 O   0  0  0  0  0  0  0  0  0  0  0  0
  -19.0838   32.0212  -24.5432 C   0  0  0  0  0  0  0  0  0  0  0  0
  -18.0771   35.7910  -20.5315 P   0  0  0  0  0  0  0  0  0  0  0  0
  -17.8132   31.8620  -25.0982 C   0  0  0  0  0  0  0  0  0  0  0  0
  -17.0222   36.3509  -21.3552 O   0  0  0  0  0  0  0  0  0  0  0  0
  -19.3096   36.7302  -20.8918 O   0  0  0  0  0  0  0  0  0  0  0  0
  -17.8209   35.7979  -19.1142 O   0  0  0  0  0  0  0  0  0  0  0  0
  -18.3647   33.2878  -18.8454 O   0  0  0  0  0  0  0  0  0  0  0  0
  1  2  1  0
  2  3  1  0
  3  4  1  0
  4  5  2  0
  4  6  1  0
  6  7  1  0
  7  8  2  0
  7  9  1  0
  8 10  1  0
  9 11  1  0
 11 12  1  0
  9 13  2  0
 12 14  2  0
 12 15  1  0
 13 16  1  0
 15 17  1  0
  8 18  1  0
 16 18  2  0
 17 19  2  0
 17 20  1  0
 17 21  1  0
 12 22  1  0
M  END
