
     RDKit          3D

 22 22  0  0  0  0  0  0  0  0999 V2000
  -20.2273   31.0691  -20.7627 O   0  0  0  0  0  0  0  0  0  0  0  0
  -19.2738   32.0006  -20.9722 P   0  0  0  0  0  0  0  0  0  0  0  0
  -19.5921   33.1842  -20.3618 O   0  0  0  0  0  0  0  0  0  0  0  0
  -19.1658   32.3572  -22.5662 O   0  0  0  0  0  0  0  0  0  0  0  0
  -18.4163   31.3835  -23.5035 C   0  0  0  0  0  0  0  0  0  0  0  0
  -16.9832   31.5068  -23.5605 C   0  0  0  0  0  0  0  0  0  0  0  0
  -18.1005   31.4772  -20.5831 O   0  0  0  0  0  0  0  0  0  0  0  0
  -16.1688   30.5429  -23.1744 O   0  0  0  0  0  0  0  0  0  0  0  0
  -16.4329   31.8826  -24.9402 C   0  0  0  0  0  0  0  0  0  0  0  0
  -15.4687   32.7999  -24.9458 O   0  0  0  0  0  0  0  0  0  0  0  0
  -17.4546   32.6213  -25.8149 C   0  0  0  0  0  0  0  0  0  0  0  0
  -17.3737   33.9911  -25.8921 C   0  0  0  0  0  0  0  0  0  0  0  0
  -16.9964   34.6519  -24.7944 O   0  0  0  0  0  0  0  0  0  0  0  0
  -15.6064   34.3875  -24.5335 C   0  0  0  0  0  0  0  0  0  0  0  0
  -16.0662   29.7362  -22.0395 C   0  0  0  0  0  0  0  0  0  0  0  0
  -16.5755   34.4952  -27.0818 C   0  0  0  0  0  0  0  0  0  0  0  0
  -14.9179   35.1874  -25.4102 O   0  0  0  0  0  0  0  0  0  0  0  0
  -16.3371   35.6836  -27.3430 O   0  0  0  0  0  0  0  0  0  0  0  0
  -17.5146   32.0491  -27.0410 O   0  0  0  0  0  0  0  0  0  0  0  0
  -15.4581   28.5325  -22.1981 C   0  0  0  0  0  0  0  0  0  0  0  0
  -14.4717   28.4391  -23.0129 O   0  0  0  0  0  0  0  0  0  0  0  0
  -16.0279   27.5056  -21.6767 O   0  0  0  0  0  0  0  0  0  0  0  0
  1  2  1  0
  2  3  1  0
  2  4  1  0
  4  5  1  0
  5  6  1  0
  2  7  2  0
  6  8  1  0
  6  9  1  0
  9 10  1  0
  9 11  1  0
 11 12  1  0
 12 13  1  0
 10 14  1  0
 13 14  1  0
  8 15  1  0
 12 16  1  0
 14 17  1  0
 16 18  1  0
 11 19  1  0
 15 20  1  0
 20 21  2  0
 20 22  1  0
M  END
