
     RDKit          3D

 10  9  0  0  0  0  0  0  0  0999 V2000
  -16.3208   36.4791  -20.3630 O   0  0  0  0  0  0  0  0  0  0  0  0
  -17.2826   36.7861  -21.4700 P   0  0  0  0  0  0  0  0  0  0  0  0
  -18.5222   37.1291  -21.0272 O   0  0  0  0  0  0  0  0  0  0  0  0
  -17.5038   35.2671  -22.1220 O   0  0  0  0  0  0  0  0  0  0  0  0
  -18.8141   34.5652  -22.0276 C   0  0  0  0  0  0  0  0  0  0  0  0
  -18.8832   33.5168  -21.0047 C   0  0  0  0  0  0  0  0  0  0  0  0
  -20.0301   32.8066  -20.9808 O   0  0  0  0  0  0  0  0  0  0  0  0
  -16.6913   37.5783  -22.5399 O   0  0  0  0  0  0  0  0  0  0  0  0
  -17.8764   32.5805  -20.8593 O   0  0  0  0  0  0  0  0  0  0  0  0
  -20.0080   31.5128  -20.5471 O   0  0  0  0  0  0  0  0  0  0  0  0
  1  2  1  0
  2  3  2  0
  2  4  1  0
  4  5  1  0
  5  6  1  0
  6  7  1  0
  2  8  1  0
  6  9  1  0
  7 10  1  0
M  END
