
     RDKit          3D

 11 10  0  0  0  0  0  0  0  0999 V2000
  -13.8270   27.2793  -22.5350 O   0  0  0  0  0  0  0  0  0  0  0  0
  -14.7754   27.3195  -21.6751 C   0  0  0  0  0  0  0  0  0  0  0  0
  -15.6914   28.4187  -22.1434 C   0  0  0  0  0  0  0  0  0  0  0  0
  -15.2083   29.8087  -22.3192 C   0  0  0  0  0  0  0  0  0  0  0  0
  -14.1839   30.0790  -22.7076 O   0  0  0  0  0  0  0  0  0  0  0  0
  -16.1562   30.7762  -21.8315 N   0  0  0  0  0  0  0  0  0  0  0  0
  -16.5092   31.8955  -22.6877 C   0  0  0  0  0  0  0  0  0  0  0  0
  -17.8403   32.3593  -22.4387 C   0  0  0  0  0  0  0  0  0  0  0  0
  -18.1926   33.5499  -22.6996 O   0  0  0  0  0  0  0  0  0  0  0  0
  -18.6763   31.4606  -21.9526 O   0  0  0  0  0  0  0  0  0  0  0  0
  -15.8578   32.1016  -23.8325 O   0  0  0  0  0  0  0  0  0  0  0  0
  1  2  1  0
  2  3  1  0
  3  4  1  0
  4  5  2  0
  4  6  1  0
  6  7  1  0
  7  8  1  0
  8  9  2  0
  8 10  1  0
  7 11  2  0
M  END
