
     RDKit          3D

 23 24  0  0  0  0  0  0  0  0999 V2000
  -20.8478   33.4248  -20.3065 O   0  0  0  0  0  0  0  0  0  0  0  0
  -19.4409   33.1702  -20.6718 P   0  0  0  0  0  0  0  0  0  0  0  0
  -19.3960   32.6076  -22.0238 O   0  0  0  0  0  0  0  0  0  0  0  0
  -18.7211   34.5144  -20.6261 O   0  0  0  0  0  0  0  0  0  0  0  0
  -18.8798   31.2234  -22.1817 C   0  0  0  0  0  0  0  0  0  0  0  0
  -18.9321   32.2210  -19.6647 O   0  0  0  0  0  0  0  0  0  0  0  0
  -17.5302   31.1546  -22.7976 C   0  0  0  0  0  0  0  0  0  0  0  0
  -16.8117   30.1508  -22.4157 N   0  0  0  0  0  0  0  0  0  0  0  0
  -17.0980   32.1556  -23.5320 C   0  0  0  0  0  0  0  0  0  0  0  0
  -17.0679   29.0737  -21.5990 C   0  0  0  0  0  0  0  0  0  0  0  0
  -15.4392   30.3372  -22.5290 C   0  0  0  0  0  0  0  0  0  0  0  0
  -14.9017   31.1510  -23.4700 N   0  0  0  0  0  0  0  0  0  0  0  0
  -18.0443   33.2405  -24.1794 C   0  0  0  0  0  0  0  0  0  0  0  0
  -15.7619   32.1697  -23.9698 C   0  0  0  0  0  0  0  0  0  0  0  0
  -15.2724   33.1378  -24.8869 N   0  0  0  0  0  0  0  0  0  0  0  0
  -14.9017   29.1744  -22.1984 N   0  0  0  0  0  0  0  0  0  0  0  0
  -15.8137   28.4153  -21.5406 C   0  0  0  0  0  0  0  0  0  0  0  0
  -17.7265   34.5107  -23.9860 N   0  0  0  0  0  0  0  0  0  0  0  0
  -18.0394   35.4647  -24.8254 C   0  0  0  0  0  0  0  0  0  0  0  0
  -18.3030   36.6229  -24.3240 O   0  0  0  0  0  0  0  0  0  0  0  0
  -17.7143   35.4313  -26.2591 C   0  0  0  0  0  0  0  0  0  0  0  0
  -16.5958   36.0802  -26.6695 C   0  0  0  0  0  0  0  0  0  0  0  0
  -15.9038   35.4266  -27.8530 C   0  0  0  0  0  0  0  0  0  0  0  0
  1  2  1  0
  2  3  1  0
  2  4  1  0
  3  5  1  0
  2  6  2  0
  5  7  1  0
  7  8  1  0
  7  9  2  0
  8 10  1  0
  8 11  1  0
 11 12  1  0
  9 13  1  0
  9 14  1  0
 12 14  2  0
 14 15  1  0
 11 16  2  0
 10 17  2  0
 16 17  1  0
 13 18  1  0
 18 19  1  0
 19 20  2  0
 19 21  1  0
 21 22  1  0
 22 23  1  0
M  END
