
     RDKit          3D

 23 23  0  0  0  0  0  0  0  0999 V2000
  -16.6579   36.2371  -19.6971 O   0  0  0  0  0  0  0  0  0  0  0  0
  -17.8267   36.4497  -20.3181 P   0  0  0  0  0  0  0  0  0  0  0  0
  -17.9547   35.4865  -21.4812 O   0  0  0  0  0  0  0  0  0  0  0  0
  -17.8632   35.6282  -22.9106 P   0  0  0  0  0  0  0  0  0  0  0  0
  -19.0277   36.0568  -19.3277 O   0  0  0  0  0  0  0  0  0  0  0  0
  -17.9935   37.7869  -20.9695 O   0  0  0  0  0  0  0  0  0  0  0  0
  -16.4624   35.7812  -23.2310 O   0  0  0  0  0  0  0  0  0  0  0  0
  -18.6468   36.7028  -23.6097 O   0  0  0  0  0  0  0  0  0  0  0  0
  -18.2076   34.2057  -23.6061 O   0  0  0  0  0  0  0  0  0  0  0  0
  -17.3798   33.3636  -24.2737 C   0  0  0  0  0  0  0  0  0  0  0  0
  -17.5248   33.5199  -25.7027 C   0  0  0  0  0  0  0  0  0  0  0  0
  -16.6496   34.5776  -26.2074 C   0  0  0  0  0  0  0  0  0  0  0  0
  -16.1047   34.4293  -27.4835 N   0  0  0  0  0  0  0  0  0  0  0  0
  -17.4146   31.9150  -23.8851 C   0  0  0  0  0  0  0  0  0  0  0  0
  -18.5867   31.4759  -23.6146 C   0  0  0  0  0  0  0  0  0  0  0  0
  -18.6443   30.8226  -22.3059 O   0  0  0  0  0  0  0  0  0  0  0  0
  -18.8829   31.7476  -21.0469 P   0  0  0  0  0  0  0  0  0  0  0  0
  -20.2283   31.4666  -20.5446 O   0  0  0  0  0  0  0  0  0  0  0  0
  -17.7686   31.5974  -20.2295 O   0  0  0  0  0  0  0  0  0  0  0  0
  -16.3402   31.2881  -23.7496 O   0  0  0  0  0  0  0  0  0  0  0  0
  -19.0546   33.3180  -21.1724 O   0  0  0  0  0  0  0  0  0  0  0  0
  -15.5600   34.7718  -25.2866 C   0  0  0  0  0  0  0  0  0  0  0  0
  -15.7753   35.5437  -24.1755 C   0  0  0  0  0  0  0  0  0  0  0  0
  1  2  1  0
  2  3  1  0
  3  4  1  0
  2  5  1  0
  2  6  2  0
  4  7  1  0
  4  8  2  0
  4  9  1  0
  9 10  1  0
 10 11  1  0
 11 12  1  0
 12 13  1  0
 10 14  1  0
 14 15  1  0
 15 16  1  0
 16 17  1  0
 17 18  1  0
 17 19  1  0
 14 20  2  0
 17 21  2  0
 12 22  1  0
  7 23  1  0
 22 23  1  0
M  END
