
     RDKit          3D

 23 24  0  0  0  0  0  0  0  0999 V2000
  -14.3635   27.3093  -22.2965 O   0  0  0  0  0  0  0  0  0  0  0  0
  -15.5291   27.8814  -21.8874 C   0  0  0  0  0  0  0  0  0  0  0  0
  -15.5530   29.3045  -22.1817 N   0  0  0  0  0  0  0  0  0  0  0  0
  -14.6506   30.1020  -22.7992 C   0  0  0  0  0  0  0  0  0  0  0  0
  -15.3788   31.2398  -23.3558 C   0  0  0  0  0  0  0  0  0  0  0  0
  -16.5445   27.3355  -21.3683 N   0  0  0  0  0  0  0  0  0  0  0  0
  -16.8094   31.3466  -23.3270 C   0  0  0  0  0  0  0  0  0  0  0  0
  -17.6342   30.4917  -22.6692 C   0  0  0  0  0  0  0  0  0  0  0  0
  -18.9998   30.7795  -22.6891 C   0  0  0  0  0  0  0  0  0  0  0  0
  -17.0003   29.3438  -21.9910 C   0  0  0  0  0  0  0  0  0  0  0  0
  -17.3478   32.4816  -23.9492 N   0  0  0  0  0  0  0  0  0  0  0  0
  -19.2764   32.1153  -22.8919 N   0  0  0  0  0  0  0  0  0  0  0  0
  -18.5762   32.9061  -23.6818 C   0  0  0  0  0  0  0  0  0  0  0  0
  -20.3930   32.7354  -22.0016 S   0  0  0  0  0  0  0  0  0  0  0  0
  -20.4125   34.0721  -22.0867 O   0  0  0  0  0  0  0  0  0  0  0  0
  -19.6857   32.3029  -20.4513 O   0  0  0  0  0  0  0  0  0  0  0  0
  -18.9561   33.9548  -24.3486 O   0  0  0  0  0  0  0  0  0  0  0  0
  -16.3783   33.2486  -24.7603 C   0  0  0  0  0  0  0  0  0  0  0  0
  -21.3681   31.9681  -21.6329 O   0  0  0  0  0  0  0  0  0  0  0  0
  -16.5800   33.0505  -26.1482 C   0  0  0  0  0  0  0  0  0  0  0  0
  -16.3561   31.9887  -26.7481 O   0  0  0  0  0  0  0  0  0  0  0  0
  -16.2705   34.2617  -26.9597 C   0  0  0  0  0  0  0  0  0  0  0  0
  -16.2408   35.4734  -26.3567 O   0  0  0  0  0  0  0  0  0  0  0  0
  1  2  2  0
  2  3  1  0
  3  4  1  0
  4  5  1  0
  2  6  1  0
  5  7  1  0
  7  8  2  0
  8  9  1  0
  3 10  1  0
  8 10  1  0
  7 11  1  0
  9 12  1  0
 11 13  1  0
 12 13  1  0
 12 14  1  0
 14 15  1  0
 14 16  1  0
 13 17  2  0
 11 18  1  0
 14 19  1  0
 18 20  1  0
 20 21  1  0
 20 22  1  0
 22 23  1  0
M  END
