
     RDKit          3D

 11 10  0  0  0  0  0  0  0  0999 V2000
  -20.2273   31.0691  -20.7627 O   0  0  0  0  0  0  0  0  0  0  0  0
  -19.5442   32.2655  -20.7148 P   0  0  0  0  0  0  0  0  0  0  0  0
  -19.2176   32.6229  -19.4801 O   0  0  0  0  0  0  0  0  0  0  0  0
  -18.1461   32.1856  -21.5963 O   0  0  0  0  0  0  0  0  0  0  0  0
  -20.5081   33.3652  -21.3477 O   0  0  0  0  0  0  0  0  0  0  0  0
  -18.3254   32.2929  -23.0649 C   0  0  0  0  0  0  0  0  0  0  0  0
  -18.2370   31.2173  -23.7135 C   0  0  0  0  0  0  0  0  0  0  0  0
  -17.0747   30.3015  -23.3476 O   0  0  0  0  0  0  0  0  0  0  0  0
  -16.7023   29.8397  -22.1403 C   0  0  0  0  0  0  0  0  0  0  0  0
  -16.7757   28.5596  -21.8841 C   0  0  0  0  0  0  0  0  0  0  0  0
  -15.4505   27.8876  -21.9546 C   0  0  0  0  0  0  0  0  0  0  0  0
  1  2  2  0
  2  3  1  0
  2  4  1  0
  2  5  1  0
  4  6  1  0
  6  7  1  0
  7  8  1  0
  8  9  1  0
  9 10  1  0
 10 11  1  0
M  END
