
     RDKit          3D

 23 23  0  0  0  0  0  0  0  0999 V2000
  -20.8478   33.4248  -20.3065 O   0  0  0  0  0  0  0  0  0  0  0  0
  -19.4409   33.1702  -20.6718 P   0  0  0  0  0  0  0  0  0  0  0  0
  -18.8028   34.3226  -20.8283 O   0  0  0  0  0  0  0  0  0  0  0  0
  -18.9379   32.0517  -19.8356 O   0  0  0  0  0  0  0  0  0  0  0  0
  -19.1917   35.9962  -21.1701 P   0  0  0  0  0  0  0  0  0  0  0  0
  -19.6224   32.5431  -22.1942 O   0  0  0  0  0  0  0  0  0  0  0  0
  -17.7758   36.5228  -21.3313 O   0  0  0  0  0  0  0  0  0  0  0  0
  -17.3168   37.7204  -22.2023 P   0  0  0  0  0  0  0  0  0  0  0  0
  -18.2513   38.2648  -23.0357 O   0  0  0  0  0  0  0  0  0  0  0  0
  -16.0826   37.0633  -22.8560 O   0  0  0  0  0  0  0  0  0  0  0  0
  -16.9738   38.8158  -21.0529 O   0  0  0  0  0  0  0  0  0  0  0  0
  -19.7335   35.7204  -22.5291 O   0  0  0  0  0  0  0  0  0  0  0  0
  -18.4662   32.4037  -23.0793 C   0  0  0  0  0  0  0  0  0  0  0  0
  -18.3248   30.9973  -23.5513 C   0  0  0  0  0  0  0  0  0  0  0  0
  -19.9667   36.6697  -20.2728 O   0  0  0  0  0  0  0  0  0  0  0  0
  -16.9231   30.4808  -23.3152 C   0  0  0  0  0  0  0  0  0  0  0  0
  -15.8729   31.4135  -23.5676 C   0  0  0  0  0  0  0  0  0  0  0  0
  -16.6065   29.3636  -22.5887 C   0  0  0  0  0  0  0  0  0  0  0  0
  -17.5659   28.4975  -22.0859 O   0  0  0  0  0  0  0  0  0  0  0  0
  -14.5303   31.0016  -23.3013 C   0  0  0  0  0  0  0  0  0  0  0  0
  -15.2734   29.0888  -22.2876 C   0  0  0  0  0  0  0  0  0  0  0  0
  -14.2475   29.9438  -22.6631 C   0  0  0  0  0  0  0  0  0  0  0  0
  -15.0806   27.9020  -21.5719 O   0  0  0  0  0  0  0  0  0  0  0  0
  1  2  1  0
  2  3  1  0
  2  4  2  0
  3  5  1  0
  2  6  1  0
  5  7  1  0
  7  8  1  0
  8  9  1  0
  8 10  2  0
  8 11  1  0
  5 12  2  0
  6 13  1  0
 13 14  1  0
  5 15  1  0
 14 16  1  0
 16 17  1  0
 16 18  2  0
 18 19  1  0
 17 20  2  0
 18 21  1  0
 20 22  1  0
 21 22  2  0
 21 23  1  0
M  END
