
     RDKit          3D

 11 11  0  0  0  0  0  0  0  0999 V2000
  -13.3302   34.0354  -34.2022 C   0  0  0  0  0  0  0  0  0  0  0  0
  -13.6672   33.5869  -33.1780 C   0  0  0  0  0  0  0  0  0  0  0  0
  -13.0456   34.7281  -35.3467 C   0  0  0  0  0  0  0  0  0  0  0  0
  -13.9953   32.7754  -32.0021 C   0  0  0  0  0  0  0  0  0  0  0  0
  -13.9568   33.1427  -30.8462 C   0  0  0  0  0  0  0  0  0  0  0  0
  -14.4824   32.3039  -29.7862 C   0  0  0  0  0  0  0  0  0  0  0  0
  -15.4005   32.9140  -28.9307 C   0  0  0  0  0  0  0  0  0  0  0  0
  -16.2266   32.2012  -28.0195 C   0  0  0  0  0  0  0  0  0  0  0  0
  -15.7195   34.3030  -28.9245 C   0  0  0  0  0  0  0  0  0  0  0  0
  -16.6506   34.5454  -27.7725 C   0  0  0  0  0  0  0  0  0  0  0  0
  -16.9832   33.2315  -27.3352 C   0  0  0  0  0  0  0  0  0  0  0  0
  1  2  3  0
  1  3  1  0
  2  4  1  0
  4  5  2  3
  5  6  1  0
  6  7  1  0
  7  8  1  0
  7  9  2  0
  9 10  1  0
  8 11  2  0
 10 11  2  0
M  END
