
     RDKit          3D

 24 24  0  0  0  0  0  0  0  0999 V2000
  -20.8284   33.5030  -20.5234 O   0  0  0  0  0  0  0  0  0  0  0  0
  -19.4119   33.1716  -20.7526 P   0  0  0  0  0  0  0  0  0  0  0  0
  -18.7647   34.2768  -20.8296 O   0  0  0  0  0  0  0  0  0  0  0  0
  -18.2085   35.3187  -21.8300 P   0  0  0  0  0  0  0  0  0  0  0  0
  -19.3353   32.2161  -21.9313 O   0  0  0  0  0  0  0  0  0  0  0  0
  -17.5443   36.4686  -21.0970 O   0  0  0  0  0  0  0  0  0  0  0  0
  -19.3964   35.6870  -22.6098 O   0  0  0  0  0  0  0  0  0  0  0  0
  -17.2013   34.7232  -22.8116 O   0  0  0  0  0  0  0  0  0  0  0  0
  -18.4414   31.4240  -22.4132 C   0  0  0  0  0  0  0  0  0  0  0  0
  -18.6347   30.7275  -23.4968 C   0  0  0  0  0  0  0  0  0  0  0  0
  -19.0173   32.2155  -19.6065 O   0  0  0  0  0  0  0  0  0  0  0  0
  -16.3610   35.5745  -23.9208 P   0  0  0  0  0  0  0  0  0  0  0  0
  -17.7036   31.0503  -24.6017 O   0  0  0  0  0  0  0  0  0  0  0  0
  -17.6199   32.4526  -24.7876 C   0  0  0  0  0  0  0  0  0  0  0  0
  -16.4271   32.8426  -25.5215 C   0  0  0  0  0  0  0  0  0  0  0  0
  -18.8485   32.8212  -25.7284 C   0  0  0  0  0  0  0  0  0  0  0  0
  -16.5432   32.9548  -26.7629 C   0  0  0  0  0  0  0  0  0  0  0  0
  -16.0365   36.7393  -23.4769 O   0  0  0  0  0  0  0  0  0  0  0  0
  -15.5367   32.3659  -24.6191 O   0  0  0  0  0  0  0  0  0  0  0  0
  -15.9517   33.9758  -27.5888 N   0  0  0  0  0  0  0  0  0  0  0  0
  -17.2855   35.6562  -25.1628 O   0  0  0  0  0  0  0  0  0  0  0  0
  -18.1003   33.2768  -27.1457 C   0  0  0  0  0  0  0  0  0  0  0  0
  -15.2524   34.8524  -24.6343 O   0  0  0  0  0  0  0  0  0  0  0  0
  -19.5845   31.6854  -26.1878 O   0  0  0  0  0  0  0  0  0  0  0  0
  1  2  1  0
  2  3  1  0
  3  4  1  0
  2  5  1  0
  4  6  1  0
  4  7  2  0
  4  8  1  0
  5  9  1  0
  9 10  1  0
  2 11  2  0
  8 12  1  0
 10 13  1  0
 13 14  1  0
 14 15  1  0
 14 16  1  0
 15 17  1  0
 12 18  1  0
 15 19  1  0
 17 20  1  0
 12 21  2  0
 16 22  1  0
 17 22  1  0
 12 23  1  0
 16 24  1  0
M  END
