
     RDKit          3D

 24 25  0  0  0  0  0  0  0  0999 V2000
  -20.8478   33.4248  -20.3065 O   0  0  0  0  0  0  0  0  0  0  0  0
  -19.4409   33.1702  -20.6718 P   0  0  0  0  0  0  0  0  0  0  0  0
  -19.3960   32.6076  -22.0238 O   0  0  0  0  0  0  0  0  0  0  0  0
  -18.7211   34.5144  -20.6261 O   0  0  0  0  0  0  0  0  0  0  0  0
  -18.8798   31.2234  -22.1817 C   0  0  0  0  0  0  0  0  0  0  0  0
  -18.9321   32.2210  -19.6647 O   0  0  0  0  0  0  0  0  0  0  0  0
  -17.5302   31.1546  -22.7976 C   0  0  0  0  0  0  0  0  0  0  0  0
  -16.8117   30.1508  -22.4157 N   0  0  0  0  0  0  0  0  0  0  0  0
  -17.0980   32.1556  -23.5320 C   0  0  0  0  0  0  0  0  0  0  0  0
  -17.0679   29.0737  -21.5990 C   0  0  0  0  0  0  0  0  0  0  0  0
  -15.4392   30.3372  -22.5290 C   0  0  0  0  0  0  0  0  0  0  0  0
  -14.9017   31.1510  -23.4700 N   0  0  0  0  0  0  0  0  0  0  0  0
  -18.0443   33.2405  -24.1794 C   0  0  0  0  0  0  0  0  0  0  0  0
  -15.7619   32.1697  -23.9698 C   0  0  0  0  0  0  0  0  0  0  0  0
  -14.7295   29.3823  -22.1885 N   0  0  0  0  0  0  0  0  0  0  0  0
  -15.2372   33.1278  -24.8324 N   0  0  0  0  0  0  0  0  0  0  0  0
  -15.7134   28.3363  -21.5793 C   0  0  0  0  0  0  0  0  0  0  0  0
  -18.1361   33.2412  -25.5635 N   0  0  0  0  0  0  0  0  0  0  0  0
  -18.4788   34.3956  -26.2701 C   0  0  0  0  0  0  0  0  0  0  0  0
  -17.8936   34.2315  -27.4890 O   0  0  0  0  0  0  0  0  0  0  0  0
  -16.7089   34.8928  -27.6558 C   0  0  0  0  0  0  0  0  0  0  0  0
  -19.4075   35.1140  -25.9824 O   0  0  0  0  0  0  0  0  0  0  0  0
  -16.4216   35.9656  -27.1588 C   0  0  0  0  0  0  0  0  0  0  0  0
  -15.8078   34.0793  -28.4889 C   0  0  0  0  0  0  0  0  0  0  0  0
  1  2  1  0
  2  3  1  0
  2  4  1  0
  3  5  1  0
  2  6  2  0
  5  7  1  0
  7  8  1  0
  7  9  2  0
  8 10  1  0
  8 11  1  0
 11 12  1  0
  9 13  1  0
  9 14  1  0
 12 14  2  0
 11 15  2  0
 14 16  1  0
 10 17  2  0
 15 17  1  0
 13 18  1  0
 18 19  1  0
 19 20  1  0
 20 21  1  0
 19 22  2  0
 21 23  1  0
 21 24  2  0
M  END
