
     RDKit          3D

 24 24  0  0  0  0  0  0  0  0999 V2000
  -14.3944   27.4003  -22.5807 O   0  0  0  0  0  0  0  0  0  0  0  0
  -15.3706   28.2035  -22.2008 C   0  0  0  0  0  0  0  0  0  0  0  0
  -15.2287   29.5765  -22.3558 N   0  0  0  0  0  0  0  0  0  0  0  0
  -16.3649   27.7269  -21.4504 O   0  0  0  0  0  0  0  0  0  0  0  0
  -16.3745   30.4433  -22.4451 C   0  0  0  0  0  0  0  0  0  0  0  0
  -17.5698   30.2734  -21.9363 C   0  0  0  0  0  0  0  0  0  0  0  0
  -16.0487   31.6168  -23.2167 C   0  0  0  0  0  0  0  0  0  0  0  0
  -17.1577   32.4136  -23.4340 C   0  0  0  0  0  0  0  0  0  0  0  0
  -18.5558   31.1317  -22.1438 C   0  0  0  0  0  0  0  0  0  0  0  0
  -18.2911   32.3344  -22.8560 C   0  0  0  0  0  0  0  0  0  0  0  0
  -16.7945   33.7586  -24.4444 C   0  0  0  0  0  0  0  0  0  0  0  0
  -19.9396   30.9201  -21.4607 O   0  0  0  0  0  0  0  0  0  0  0  0
  -16.0278   33.6006  -25.2942 O   0  0  0  0  0  0  0  0  0  0  0  0
  -17.7293   34.7153  -24.3673 N   0  0  0  0  0  0  0  0  0  0  0  0
  -17.5779   35.8784  -25.3395 C   0  0  0  0  0  0  0  0  0  0  0  0
  -17.6940   35.4799  -26.6711 C   0  0  0  0  0  0  0  0  0  0  0  0
  -20.3856   31.9707  -20.6172 C   0  0  0  0  0  0  0  0  0  0  0  0
  -18.2596   37.0279  -25.0051 O   0  0  0  0  0  0  0  0  0  0  0  0
  -20.7784   33.0189  -21.0679 O   0  0  0  0  0  0  0  0  0  0  0  0
  -20.0497   31.7577  -19.3399 O   0  0  0  0  0  0  0  0  0  0  0  0
  -17.1215   36.1874  -27.6407 F   0  0  0  0  0  0  0  0  0  0  0  0
  -18.9523   36.9893  -23.8334 C   0  0  0  0  0  0  0  0  0  0  0  0
  -19.0498   35.4167  -26.8347 F   0  0  0  0  0  0  0  0  0  0  0  0
  -17.2076   34.1409  -27.0578 F   0  0  0  0  0  0  0  0  0  0  0  0
  1  2  2  0
  2  3  1  0
  2  4  1  0
  3  5  1  0
  5  6  1  0
  5  7  2  0
  7  8  1  0
  6  9  2  0
  8 10  2  0
  9 10  1  0
  8 11  1  0
  9 12  1  0
 11 13  2  0
 11 14  1  0
 14 15  1  0
 15 16  1  0
 12 17  1  0
 15 18  1  0
 17 19  2  0
 17 20  1  0
 16 21  1  0
 18 22  1  0
 16 23  1  0
 16 24  1  0
M  END
