
     RDKit          3D

 24 24  0  0  0  0  0  0  0  0999 V2000
  -14.3635   27.3093  -22.2965 O   0  0  0  0  0  0  0  0  0  0  0  0
  -15.5291   27.8814  -21.8874 C   0  0  0  0  0  0  0  0  0  0  0  0
  -15.5530   29.3045  -22.1817 N   0  0  0  0  0  0  0  0  0  0  0  0
  -14.6506   30.1020  -22.7992 C   0  0  0  0  0  0  0  0  0  0  0  0
  -15.3788   31.2398  -23.3558 C   0  0  0  0  0  0  0  0  0  0  0  0
  -16.5445   27.3355  -21.3683 N   0  0  0  0  0  0  0  0  0  0  0  0
  -16.8094   31.3466  -23.3270 C   0  0  0  0  0  0  0  0  0  0  0  0
  -17.6342   30.4917  -22.6692 O   0  0  0  0  0  0  0  0  0  0  0  0
  -17.4140   32.3058  -24.1288 N   0  0  0  0  0  0  0  0  0  0  0  0
  -16.5888   33.3026  -24.8939 C   0  0  0  0  0  0  0  0  0  0  0  0
  -18.8221   32.5816  -23.9330 C   0  0  0  0  0  0  0  0  0  0  0  0
  -16.4555   34.5913  -24.3498 C   0  0  0  0  0  0  0  0  0  0  0  0
  -17.1994   33.4374  -26.3270 C   0  0  0  0  0  0  0  0  0  0  0  0
  -19.2441   33.2582  -22.7741 C   0  0  0  0  0  0  0  0  0  0  0  0
  -15.4314   35.2185  -24.2948 O   0  0  0  0  0  0  0  0  0  0  0  0
  -17.4904   35.2914  -23.8154 O   0  0  0  0  0  0  0  0  0  0  0  0
  -16.4213   33.7705  -27.3153 C   0  0  0  0  0  0  0  0  0  0  0  0
  -17.3613   35.9711  -22.5080 C   0  0  0  0  0  0  0  0  0  0  0  0
  -18.2717   35.5198  -21.4974 C   0  0  0  0  0  0  0  0  0  0  0  0
  -15.9613   32.9644  -28.2505 O   0  0  0  0  0  0  0  0  0  0  0  0
  -18.4557   33.8001  -21.7319 O   0  0  0  0  0  0  0  0  0  0  0  0
  -15.8790   34.9886  -27.3835 O   0  0  0  0  0  0  0  0  0  0  0  0
  -17.8728   35.5453  -20.0622 C   0  0  0  0  0  0  0  0  0  0  0  0
  -17.4101   36.8044  -19.8082 O   0  0  0  0  0  0  0  0  0  0  0  0
  1  2  2  0
  2  3  1  0
  3  4  1  0
  4  5  1  0
  2  6  1  0
  5  7  1  0
  7  8  2  0
  7  9  1  0
  9 10  1  0
  9 11  1  0
 10 12  1  0
 10 13  1  0
 11 14  1  0
 12 15  2  0
 12 16  1  0
 13 17  1  0
 16 18  1  0
 18 19  1  0
 17 20  2  0
 14 21  1  0
 19 21  1  0
 17 22  1  0
 19 23  1  0
 23 24  1  0
M  END
