
     RDKit          3D

 24 24  0  0  0  0  0  0  0  0999 V2000
  -16.6051   36.0222  -19.5733 O   0  0  0  0  0  0  0  0  0  0  0  0
  -17.4866   36.5328  -20.5089 P   0  0  0  0  0  0  0  0  0  0  0  0
  -17.8698   35.4947  -21.4983 O   0  0  0  0  0  0  0  0  0  0  0  0
  -19.0860   34.5450  -21.2703 P   0  0  0  0  0  0  0  0  0  0  0  0
  -16.4579   37.4319  -21.4550 O   0  0  0  0  0  0  0  0  0  0  0  0
  -18.9621   33.2689  -21.8648 O   0  0  0  0  0  0  0  0  0  0  0  0
  -18.6496   37.3285  -20.0276 O   0  0  0  0  0  0  0  0  0  0  0  0
  -20.3481   35.2690  -21.6934 O   0  0  0  0  0  0  0  0  0  0  0  0
  -18.9481   31.8316  -21.2447 P   0  0  0  0  0  0  0  0  0  0  0  0
  -19.0405   34.3813  -19.6821 O   0  0  0  0  0  0  0  0  0  0  0  0
  -20.1585   31.6039  -21.0051 O   0  0  0  0  0  0  0  0  0  0  0  0
  -18.3418   30.8907  -22.3677 O   0  0  0  0  0  0  0  0  0  0  0  0
  -17.0147   30.9184  -23.0344 C   0  0  0  0  0  0  0  0  0  0  0  0
  -17.9635   31.8506  -20.2031 O   0  0  0  0  0  0  0  0  0  0  0  0
  -16.0563   30.1480  -22.5247 C   0  0  0  0  0  0  0  0  0  0  0  0
  -16.2676   28.7819  -21.9581 C   0  0  0  0  0  0  0  0  0  0  0  0
  -16.9315   31.5236  -24.2641 C   0  0  0  0  0  0  0  0  0  0  0  0
  -17.9970   32.3629  -24.7835 C   0  0  0  0  0  0  0  0  0  0  0  0
  -17.5466   33.6965  -25.1757 N   0  0  0  0  0  0  0  0  0  0  0  0
  -15.1110   28.0376  -21.9258 O   0  0  0  0  0  0  0  0  0  0  0  0
  -16.3037   34.0730  -25.1606 C   0  0  0  0  0  0  0  0  0  0  0  0
  -18.1882   34.0921  -26.4787 C   0  0  0  0  0  0  0  0  0  0  0  0
  -15.9727   35.3309  -25.6712 C   0  0  0  0  0  0  0  0  0  0  0  0
  -17.3899   35.4051  -26.7598 C   0  0  0  0  0  0  0  0  0  0  0  0
  1  2  1  0
  2  3  1  0
  3  4  1  0
  2  5  2  0
  4  6  1  0
  2  7  1  0
  4  8  2  0
  6  9  1  0
  4 10  1  0
  9 11  2  0
  9 12  1  0
 12 13  1  0
  9 14  1  0
 13 15  1  0
 15 16  1  0
 13 17  1  0
 17 18  1  0
 18 19  1  0
 16 20  1  0
 19 21  1  0
 19 22  1  0
 21 23  1  0
 22 24  1  0
 23 24  1  0
M  END
