
     RDKit          3D

 24 24  0  0  0  0  0  0  0  0999 V2000
  -20.8478   33.4248  -20.3065 O   0  0  0  0  0  0  0  0  0  0  0  0
  -19.4409   33.1702  -20.6718 P   0  0  0  0  0  0  0  0  0  0  0  0
  -18.8028   34.3226  -20.8283 O   0  0  0  0  0  0  0  0  0  0  0  0
  -18.9379   32.0517  -19.8356 O   0  0  0  0  0  0  0  0  0  0  0  0
  -19.1917   35.9962  -21.1701 P   0  0  0  0  0  0  0  0  0  0  0  0
  -19.6224   32.5431  -22.1942 O   0  0  0  0  0  0  0  0  0  0  0  0
  -17.7758   36.5228  -21.3313 O   0  0  0  0  0  0  0  0  0  0  0  0
  -17.3168   37.7204  -22.2023 P   0  0  0  0  0  0  0  0  0  0  0  0
  -18.2513   38.2648  -23.0357 O   0  0  0  0  0  0  0  0  0  0  0  0
  -18.5019   32.5657  -23.2041 C   0  0  0  0  0  0  0  0  0  0  0  0
  -20.0326   35.9875  -22.2269 O   0  0  0  0  0  0  0  0  0  0  0  0
  -19.8230   36.2132  -19.7809 O   0  0  0  0  0  0  0  0  0  0  0  0
  -16.7532   38.6880  -21.1588 O   0  0  0  0  0  0  0  0  0  0  0  0
  -18.2261   31.3193  -23.7852 C   0  0  0  0  0  0  0  0  0  0  0  0
  -16.7546   30.9793  -23.5777 C   0  0  0  0  0  0  0  0  0  0  0  0
  -15.7490   31.7970  -24.1733 C   0  0  0  0  0  0  0  0  0  0  0  0
  -16.2150   37.0620  -23.0702 O   0  0  0  0  0  0  0  0  0  0  0  0
  -16.3808   29.7849  -23.0041 C   0  0  0  0  0  0  0  0  0  0  0  0
  -14.4690   31.5428  -23.8749 N   0  0  0  0  0  0  0  0  0  0  0  0
  -15.0955   29.4985  -22.6687 C   0  0  0  0  0  0  0  0  0  0  0  0
  -14.7967   28.2198  -22.0512 C   0  0  0  0  0  0  0  0  0  0  0  0
  -13.8166   27.6611  -22.7318 O   0  0  0  0  0  0  0  0  0  0  0  0
  -14.1001   30.4207  -23.2114 C   0  0  0  0  0  0  0  0  0  0  0  0
  -15.3298   27.8890  -20.9687 O   0  0  0  0  0  0  0  0  0  0  0  0
  1  2  1  0
  2  3  1  0
  2  4  2  0
  3  5  1  0
  2  6  1  0
  5  7  1  0
  7  8  1  0
  8  9  1  0
  6 10  1  0
  5 11  2  0
  5 12  1  0
  8 13  2  0
 10 14  1  0
 14 15  1  0
 15 16  2  0
  8 17  1  0
 15 18  1  0
 16 19  1  0
 18 20  2  0
 20 21  1  0
 21 22  2  0
 19 23  2  0
 20 23  1  0
 21 24  1  0
M  END
