
     RDKit          3D

 24 26  0  0  0  0  0  0  0  0999 V2000
  -20.8478   33.4248  -20.3065 O   0  0  0  0  0  0  0  0  0  0  0  0
  -19.4409   33.1702  -20.6718 P   0  0  0  0  0  0  0  0  0  0  0  0
  -18.8028   34.3226  -20.8283 O   0  0  0  0  0  0  0  0  0  0  0  0
  -18.9379   32.0517  -19.8356 O   0  0  0  0  0  0  0  0  0  0  0  0
  -19.1917   35.9962  -21.1701 P   0  0  0  0  0  0  0  0  0  0  0  0
  -19.6224   32.5431  -22.1942 O   0  0  0  0  0  0  0  0  0  0  0  0
  -18.5407   32.5784  -23.2245 C   0  0  0  0  0  0  0  0  0  0  0  0
  -18.1960   31.4571  -23.8609 C   0  0  0  0  0  0  0  0  0  0  0  0
  -16.7217   31.2764  -23.9072 C   0  0  0  0  0  0  0  0  0  0  0  0
  -17.8031   36.6312  -21.1376 O   0  0  0  0  0  0  0  0  0  0  0  0
  -16.0287   30.4757  -22.9717 C   0  0  0  0  0  0  0  0  0  0  0  0
  -19.8223   35.8744  -22.4652 O   0  0  0  0  0  0  0  0  0  0  0  0
  -20.0233   36.5624  -20.0977 O   0  0  0  0  0  0  0  0  0  0  0  0
  -16.0865   32.7197  -24.0821 C   0  0  0  0  0  0  0  0  0  0  0  0
  -16.5146   29.3408  -22.5505 N   0  0  0  0  0  0  0  0  0  0  0  0
  -15.7017   28.5328  -21.7847 C   0  0  0  0  0  0  0  0  0  0  0  0
  -14.7391   30.5784  -22.4993 O   0  0  0  0  0  0  0  0  0  0  0  0
  -15.7540   27.3379  -21.4629 N   0  0  0  0  0  0  0  0  0  0  0  0
  -14.4686   29.4205  -21.9076 N   0  0  0  0  0  0  0  0  0  0  0  0
  -15.7189   33.1845  -25.3670 C   0  0  0  0  0  0  0  0  0  0  0  0
  -17.3400   33.4471  -23.6745 C   0  0  0  0  0  0  0  0  0  0  0  0
  -15.5884   34.6317  -25.2878 N   0  0  0  0  0  0  0  0  0  0  0  0
  -16.7944   35.2573  -25.2262 C   0  0  0  0  0  0  0  0  0  0  0  0
  -17.6330   34.8002  -23.9674 C   0  0  0  0  0  0  0  0  0  0  0  0
  1  2  1  0
  2  3  1  0
  2  4  2  0
  3  5  1  0
  2  6  1  0
  6  7  1  0
  7  8  1  0
  8  9  1  0
  5 10  1  0
  9 11  1  0
  5 12  2  0
  5 13  1  0
  9 14  1  0
 11 15  2  0
 15 16  1  0
 11 17  1  0
 16 18  1  0
 16 19  2  0
 17 19  1  0
 14 20  1  0
  7 21  1  0
 14 21  1  0
 20 22  1  0
 22 23  1  0
 21 24  1  0
 23 24  1  0
M  END
