
     RDKit          3D

 13 12  0  0  0  0  0  0  0  0999 V2000
  -14.3944   27.4003  -22.5807 O   0  0  0  0  0  0  0  0  0  0  0  0
  -15.4790   27.8942  -21.9156 C   0  0  0  0  0  0  0  0  0  0  0  0
  -15.5741   29.3239  -22.0861 C   0  0  0  0  0  0  0  0  0  0  0  0
  -16.7160   29.9353  -22.1210 C   0  0  0  0  0  0  0  0  0  0  0  0
  -16.8911   31.3631  -22.5536 C   0  0  0  0  0  0  0  0  0  0  0  0
  -18.1541   31.8687  -22.5862 C   0  0  0  0  0  0  0  0  0  0  0  0
  -16.2284   27.2786  -21.2696 O   0  0  0  0  0  0  0  0  0  0  0  0
  -18.2365   33.0698  -22.2180 O   0  0  0  0  0  0  0  0  0  0  0  0
  -19.4054   33.7444  -21.4371 P   0  0  0  0  0  0  0  0  0  0  0  0
  -20.3802   34.4749  -22.2182 O   0  0  0  0  0  0  0  0  0  0  0  0
  -20.3354   32.5274  -20.7920 O   0  0  0  0  0  0  0  0  0  0  0  0
  -16.3415   31.5344  -23.9582 O   0  0  0  0  0  0  0  0  0  0  0  0
  -18.7490   34.5091  -20.2848 O   0  0  0  0  0  0  0  0  0  0  0  0
  1  2  2  0
  2  3  1  0
  3  4  2  3
  4  5  1  0
  5  6  1  0
  2  7  1  0
  6  8  1  0
  8  9  1  0
  9 10  2  0
  9 11  1  0
  5 12  1  0
  9 13  1  0
M  END
