
     RDKit          3D

 25 24  0  0  0  0  0  0  0  0999 V2000
  -16.6579   36.2371  -19.6971 O   0  0  0  0  0  0  0  0  0  0  0  0
  -17.8267   36.4497  -20.3181 P   0  0  0  0  0  0  0  0  0  0  0  0
  -17.9547   35.4865  -21.4812 O   0  0  0  0  0  0  0  0  0  0  0  0
  -17.8632   35.6282  -22.9106 P   0  0  0  0  0  0  0  0  0  0  0  0
  -19.0277   36.0568  -19.3277 O   0  0  0  0  0  0  0  0  0  0  0  0
  -17.9935   37.7869  -20.9695 O   0  0  0  0  0  0  0  0  0  0  0  0
  -16.4624   35.7812  -23.2310 O   0  0  0  0  0  0  0  0  0  0  0  0
  -18.6468   36.7028  -23.6097 O   0  0  0  0  0  0  0  0  0  0  0  0
  -18.2076   34.2057  -23.6061 O   0  0  0  0  0  0  0  0  0  0  0  0
  -17.3798   33.3636  -24.2737 C   0  0  0  0  0  0  0  0  0  0  0  0
  -17.5248   33.5199  -25.7027 C   0  0  0  0  0  0  0  0  0  0  0  0
  -16.6496   34.5776  -26.2074 C   0  0  0  0  0  0  0  0  0  0  0  0
  -16.1047   34.4293  -27.4835 N   0  0  0  0  0  0  0  0  0  0  0  0
  -17.4146   31.9150  -23.8851 C   0  0  0  0  0  0  0  0  0  0  0  0
  -18.5867   31.4759  -23.6146 C   0  0  0  0  0  0  0  0  0  0  0  0
  -18.6443   30.8226  -22.3059 O   0  0  0  0  0  0  0  0  0  0  0  0
  -18.8829   31.7476  -21.0469 P   0  0  0  0  0  0  0  0  0  0  0  0
  -20.2283   31.4666  -20.5446 O   0  0  0  0  0  0  0  0  0  0  0  0
  -15.5969   34.7475  -25.2670 O   0  0  0  0  0  0  0  0  0  0  0  0
  -17.9160   31.5332  -20.0903 O   0  0  0  0  0  0  0  0  0  0  0  0
  -18.9219   33.2629  -21.2059 O   0  0  0  0  0  0  0  0  0  0  0  0
  -16.2875   31.3067  -23.8575 C   0  0  0  0  0  0  0  0  0  0  0  0
  -15.9338   30.3725  -22.8543 C   0  0  0  0  0  0  0  0  0  0  0  0
  -14.7219   30.2220  -22.4888 O   0  0  0  0  0  0  0  0  0  0  0  0
  -16.7952   29.7937  -22.0690 O   0  0  0  0  0  0  0  0  0  0  0  0
  1  2  1  0
  2  3  1  0
  3  4  1  0
  2  5  1  0
  2  6  2  0
  4  7  1  0
  4  8  2  0
  4  9  1  0
  9 10  1  0
 10 11  1  0
 11 12  1  0
 12 13  1  0
 10 14  1  0
 14 15  1  0
 15 16  1  0
 16 17  1  0
 17 18  1  0
 12 19  1  0
 17 20  1  0
 17 21  2  0
 14 22  2  3
 22 23  1  0
 23 24  2  0
 23 25  1  0
M  END
