
     RDKit          3D

 25 24  0  0  0  0  0  0  0  0999 V2000
  -16.6051   36.0222  -19.5733 O   0  0  0  0  0  0  0  0  0  0  0  0
  -17.4866   36.5328  -20.5089 P   0  0  0  0  0  0  0  0  0  0  0  0
  -16.6442   37.3596  -21.4175 O   0  0  0  0  0  0  0  0  0  0  0  0
  -18.0585   35.3865  -21.4473 O   0  0  0  0  0  0  0  0  0  0  0  0
  -19.5063   35.2180  -21.6657 C   0  0  0  0  0  0  0  0  0  0  0  0
  -19.7838   33.6476  -21.5619 C   0  0  0  0  0  0  0  0  0  0  0  0
  -18.6774   37.2878  -19.9615 O   0  0  0  0  0  0  0  0  0  0  0  0
  -19.0808   32.8051  -22.0456 O   0  0  0  0  0  0  0  0  0  0  0  0
  -18.5331   31.6131  -21.8883 C   0  0  0  0  0  0  0  0  0  0  0  0
  -17.3879   31.2341  -22.3067 C   0  0  0  0  0  0  0  0  0  0  0  0
  -19.7684   30.8436  -22.1539 O   0  0  0  0  0  0  0  0  0  0  0  0
  -17.0232   31.6646  -23.5707 C   0  0  0  0  0  0  0  0  0  0  0  0
  -20.5644   33.2120  -20.5961 O   0  0  0  0  0  0  0  0  0  0  0  0
  -16.8696   29.9110  -22.2006 C   0  0  0  0  0  0  0  0  0  0  0  0
  -17.7727   32.5802  -24.3610 N   0  0  0  0  0  0  0  0  0  0  0  0
  -17.3465   32.8785  -25.7672 C   0  0  0  0  0  0  0  0  0  0  0  0
  -16.3825   33.8296  -25.7906 C   0  0  0  0  0  0  0  0  0  0  0  0
  -15.4667   29.7769  -22.3940 C   0  0  0  0  0  0  0  0  0  0  0  0
  -16.0132   34.2891  -27.0550 C   0  0  0  0  0  0  0  0  0  0  0  0
  -16.2310   33.4674  -28.1438 O   0  0  0  0  0  0  0  0  0  0  0  0
  -16.3452   34.9323  -24.7785 C   0  0  0  0  0  0  0  0  0  0  0  0
  -14.9886   28.3843  -22.1855 C   0  0  0  0  0  0  0  0  0  0  0  0
  -15.6307   35.4868  -27.3020 O   0  0  0  0  0  0  0  0  0  0  0  0
  -14.0774   27.7852  -22.9149 O   0  0  0  0  0  0  0  0  0  0  0  0
  -15.5088   27.7517  -21.2482 O   0  0  0  0  0  0  0  0  0  0  0  0
  1  2  1  0
  2  3  2  0
  2  4  1  0
  4  5  1  0
  5  6  1  0
  2  7  1  0
  6  8  1  0
  8  9  1  0
  9 10  1  0
  9 11  1  0
 10 12  1  0
  6 13  2  0
 10 14  1  0
 12 15  1  0
 15 16  1  0
 16 17  1  0
 14 18  1  0
 17 19  1  0
 19 20  1  0
 17 21  1  0
 18 22  1  0
 19 23  2  0
 22 24  1  0
 22 25  2  0
M  END
