
     RDKit          3D

 13 12  0  0  0  0  0  0  0  0999 V2000
  -21.3302   34.3530  -20.9865 O   0  0  0  0  0  0  0  0  0  0  0  0
  -20.0366   34.4489  -21.5346 C   0  0  0  0  0  0  0  0  0  0  0  0
  -19.1106   33.3805  -21.2595 C   0  0  0  0  0  0  0  0  0  0  0  0
  -19.4008   35.7214  -21.3222 C   0  0  0  0  0  0  0  0  0  0  0  0
  -19.2395   32.2286  -22.0625 C   0  0  0  0  0  0  0  0  0  0  0  0
  -19.6483   31.1108  -21.7175 O   0  0  0  0  0  0  0  0  0  0  0  0
  -18.4836   35.7456  -20.3538 O   0  0  0  0  0  0  0  0  0  0  0  0
  -19.3561   32.9897  -19.7956 O   0  0  0  0  0  0  0  0  0  0  0  0
  -17.1722   36.7027  -20.2960 P   0  0  0  0  0  0  0  0  0  0  0  0
  -16.4805   36.5008  -21.5267 O   0  0  0  0  0  0  0  0  0  0  0  0
  -18.5569   32.1745  -23.2429 O   0  0  0  0  0  0  0  0  0  0  0  0
  -17.9525   38.0612  -20.2972 O   0  0  0  0  0  0  0  0  0  0  0  0
  -16.6695   36.4188  -19.0040 O   0  0  0  0  0  0  0  0  0  0  0  0
  1  2  1  0
  2  3  1  0
  2  4  1  0
  3  5  1  0
  5  6  1  0
  4  7  1  0
  3  8  1  0
  7  9  1  0
  9 10  2  0
  5 11  2  0
  9 12  1  0
  9 13  1  0
M  END
