
     RDKit          3D

 25 25  0  0  0  0  0  0  0  0999 V2000
  -16.6051   36.0222  -19.5733 O   0  0  0  0  0  0  0  0  0  0  0  0
  -17.4866   36.5328  -20.5089 P   0  0  0  0  0  0  0  0  0  0  0  0
  -17.8698   35.4947  -21.4983 O   0  0  0  0  0  0  0  0  0  0  0  0
  -19.0860   34.5450  -21.2703 P   0  0  0  0  0  0  0  0  0  0  0  0
  -16.4579   37.4319  -21.4550 O   0  0  0  0  0  0  0  0  0  0  0  0
  -18.9621   33.2689  -21.8648 O   0  0  0  0  0  0  0  0  0  0  0  0
  -18.6496   37.3285  -20.0276 O   0  0  0  0  0  0  0  0  0  0  0  0
  -20.3481   35.2690  -21.6934 O   0  0  0  0  0  0  0  0  0  0  0  0
  -18.9481   31.8316  -21.2447 P   0  0  0  0  0  0  0  0  0  0  0  0
  -19.0405   34.3813  -19.6821 O   0  0  0  0  0  0  0  0  0  0  0  0
  -20.1585   31.6039  -21.0051 O   0  0  0  0  0  0  0  0  0  0  0  0
  -18.3418   30.8907  -22.3677 O   0  0  0  0  0  0  0  0  0  0  0  0
  -18.0247   31.7469  -20.1566 O   0  0  0  0  0  0  0  0  0  0  0  0
  -16.8680   30.7116  -22.6866 C   0  0  0  0  0  0  0  0  0  0  0  0
  -16.3352   31.6214  -23.6286 C   0  0  0  0  0  0  0  0  0  0  0  0
  -16.1548   29.9430  -21.7910 C   0  0  0  0  0  0  0  0  0  0  0  0
  -17.1667   32.5185  -24.5211 C   0  0  0  0  0  0  0  0  0  0  0  0
  -15.0147   29.4249  -22.3289 O   0  0  0  0  0  0  0  0  0  0  0  0
  -16.6418   29.4631  -20.7814 N   0  0  0  0  0  0  0  0  0  0  0  0
  -16.5073   32.8144  -25.7136 C   0  0  0  0  0  0  0  0  0  0  0  0
  -16.3300   34.3498  -25.7168 C   0  0  0  0  0  0  0  0  0  0  0  0
  -17.1763   32.5516  -26.9449 C   0  0  0  0  0  0  0  0  0  0  0  0
  -15.9445   34.9607  -24.5988 C   0  0  0  0  0  0  0  0  0  0  0  0
  -16.4414   34.9844  -26.8813 C   0  0  0  0  0  0  0  0  0  0  0  0
  -16.8780   34.0580  -27.9961 C   0  0  0  0  0  0  0  0  0  0  0  0
  1  2  1  0
  2  3  1  0
  3  4  1  0
  2  5  2  0
  4  6  1  0
  2  7  1  0
  4  8  2  0
  6  9  1  0
  4 10  1  0
  9 11  2  0
  9 12  1  0
  9 13  1  0
 12 14  1  0
 14 15  2  3
 14 16  1  0
 15 17  1  0
 16 18  2  0
 16 19  1  0
 17 20  1  0
 20 21  1  0
 20 22  1  0
 21 23  1  0
 21 24  2  0
 22 25  1  0
 24 25  1  0
M  END
