
     RDKit          3D

 25 25  0  0  0  0  0  0  0  0999 V2000
  -20.8284   33.5030  -20.5234 O   0  0  0  0  0  0  0  0  0  0  0  0
  -19.4119   33.1716  -20.7526 P   0  0  0  0  0  0  0  0  0  0  0  0
  -18.7647   34.2768  -20.8296 O   0  0  0  0  0  0  0  0  0  0  0  0
  -18.2085   35.3187  -21.8300 P   0  0  0  0  0  0  0  0  0  0  0  0
  -19.3353   32.2161  -21.9313 O   0  0  0  0  0  0  0  0  0  0  0  0
  -17.5443   36.4686  -21.0970 O   0  0  0  0  0  0  0  0  0  0  0  0
  -19.3964   35.6870  -22.6098 O   0  0  0  0  0  0  0  0  0  0  0  0
  -17.2013   34.7232  -22.8116 O   0  0  0  0  0  0  0  0  0  0  0  0
  -18.4414   31.4240  -22.4132 C   0  0  0  0  0  0  0  0  0  0  0  0
  -17.2309   31.4702  -21.9588 C   0  0  0  0  0  0  0  0  0  0  0  0
  -18.8194   30.6940  -23.6686 C   0  0  0  0  0  0  0  0  0  0  0  0
  -19.0006   32.2132  -19.5912 O   0  0  0  0  0  0  0  0  0  0  0  0
  -20.0052   31.2912  -24.3813 O   0  0  0  0  0  0  0  0  0  0  0  0
  -19.6600   32.2301  -25.3580 C   0  0  0  0  0  0  0  0  0  0  0  0
  -16.2096   30.4737  -22.3379 C   0  0  0  0  0  0  0  0  0  0  0  0
  -15.0526   30.9194  -22.8788 O   0  0  0  0  0  0  0  0  0  0  0  0
  -16.3044   29.1980  -22.1644 C   0  0  0  0  0  0  0  0  0  0  0  0
  -15.1946   28.3060  -22.4359 C   0  0  0  0  0  0  0  0  0  0  0  0
  -18.6686   33.1529  -25.1425 C   0  0  0  0  0  0  0  0  0  0  0  0
  -18.8042   34.4533  -25.5250 O   0  0  0  0  0  0  0  0  0  0  0  0
  -17.4537   32.7813  -24.5379 O   0  0  0  0  0  0  0  0  0  0  0  0
  -14.3470   28.5388  -23.2137 O   0  0  0  0  0  0  0  0  0  0  0  0
  -15.3757   27.0458  -21.8766 N   0  0  0  0  0  0  0  0  0  0  0  0
  -16.3970   33.7692  -24.7932 C   0  0  0  0  0  0  0  0  0  0  0  0
  -16.6780   35.1111  -24.1640 C   0  0  0  0  0  0  0  0  0  0  0  0
  1  2  1  0
  2  3  1  0
  3  4  1  0
  2  5  1  0
  4  6  1  0
  4  7  2  0
  4  8  1  0
  5  9  1  0
  9 10  2  3
  9 11  1  0
  2 12  2  0
 11 13  1  0
 13 14  1  0
 10 15  1  0
 15 16  1  0
 15 17  2  3
 17 18  1  0
 14 19  1  0
 19 20  2  0
 19 21  1  0
 18 22  2  0
 18 23  1  0
 21 24  1  0
  8 25  1  0
 24 25  1  0
M  END
