
     RDKit          3D

  4  3  0  0  0  0  0  0  0  0999 V2000
  -12.9019   26.9580  -21.8663 O   0  0  0  0  0  0  0  0  0  0  0  0
  -12.1948   26.5123  -21.2612 C   0  0  0  0  0  0  0  0  0  0  0  0
  -11.9817   25.2685  -20.6517 C   0  0  0  0  0  0  0  0  0  0  0  0
  -11.0577   27.1438  -20.9021 O   0  0  0  0  0  0  0  0  0  0  0  0
  1  2  2  0
  2  3  1  0
  2  4  1  0
M  END
