
     RDKit          3D

 14 13  0  0  0  0  0  0  0  0999 V2000
  -20.2273   31.0691  -20.7627 O   0  0  0  0  0  0  0  0  0  0  0  0
  -19.2738   32.0006  -20.9722 P   0  0  0  0  0  0  0  0  0  0  0  0
  -19.5921   33.1842  -20.3618 O   0  0  0  0  0  0  0  0  0  0  0  0
  -19.1658   32.3572  -22.5662 O   0  0  0  0  0  0  0  0  0  0  0  0
  -18.4163   31.3835  -23.5035 C   0  0  0  0  0  0  0  0  0  0  0  0
  -16.9832   31.5068  -23.5605 C   0  0  0  0  0  0  0  0  0  0  0  0
  -18.1005   31.4772  -20.5831 O   0  0  0  0  0  0  0  0  0  0  0  0
  -16.1688   30.5429  -23.1744 O   0  0  0  0  0  0  0  0  0  0  0  0
  -16.4329   31.8826  -24.9402 C   0  0  0  0  0  0  0  0  0  0  0  0
  -15.4687   32.7999  -24.9458 O   0  0  0  0  0  0  0  0  0  0  0  0
  -16.2391   29.7474  -22.0139 C   0  0  0  0  0  0  0  0  0  0  0  0
  -15.8274   28.4619  -22.2324 C   0  0  0  0  0  0  0  0  0  0  0  0
  -14.7846   28.0809  -22.6311 O   0  0  0  0  0  0  0  0  0  0  0  0
  -16.6902   27.5047  -22.0808 O   0  0  0  0  0  0  0  0  0  0  0  0
  1  2  1  0
  2  3  1  0
  2  4  1  0
  4  5  1  0
  5  6  1  0
  2  7  2  0
  6  8  1  0
  6  9  1  0
  9 10  1  0
  8 11  1  0
 11 12  1  0
 12 13  2  0
 12 14  1  0
M  END
