
     RDKit          3D

 14 14  0  0  0  0  0  0  0  0999 V2000
  -20.2273   31.0691  -20.7627 O   0  0  0  0  0  0  0  0  0  0  0  0
  -19.5442   32.2655  -20.7148 P   0  0  0  0  0  0  0  0  0  0  0  0
  -19.2176   32.6229  -19.4801 O   0  0  0  0  0  0  0  0  0  0  0  0
  -18.1461   32.1856  -21.5963 O   0  0  0  0  0  0  0  0  0  0  0  0
  -18.1683   31.7911  -22.9289 C   0  0  0  0  0  0  0  0  0  0  0  0
  -20.3503   33.4222  -21.3957 O   0  0  0  0  0  0  0  0  0  0  0  0
  -16.9617   31.2665  -23.4313 C   0  0  0  0  0  0  0  0  0  0  0  0
  -16.3851   30.1742  -22.6676 N   0  0  0  0  0  0  0  0  0  0  0  0
  -16.3039   31.7289  -24.4470 O   0  0  0  0  0  0  0  0  0  0  0  0
  -16.9764   29.3626  -21.8857 C   0  0  0  0  0  0  0  0  0  0  0  0
  -14.9206   29.9915  -22.8227 C   0  0  0  0  0  0  0  0  0  0  0  0
  -14.7205   28.6834  -22.4355 C   0  0  0  0  0  0  0  0  0  0  0  0
  -16.2278   28.2206  -21.5618 C   0  0  0  0  0  0  0  0  0  0  0  0
  -13.6586   27.7652  -22.3686 C   0  0  0  0  0  0  0  0  0  0  0  0
  1  2  2  0
  2  3  1  0
  2  4  1  0
  4  5  1  0
  2  6  1  0
  5  7  1  0
  7  8  1  0
  7  9  2  0
  8 10  1  0
  8 11  1  0
 11 12  2  0
 10 13  2  0
 12 13  1  0
 12 14  1  0
M  END
