
     RDKit          3D

 26 26  0  0  0  0  0  0  0  0999 V2000
  -17.5652   35.9850  -19.5782 O   0  0  0  0  0  0  0  0  0  0  0  0
  -18.4445   35.8891  -20.5973 P   0  0  0  0  0  0  0  0  0  0  0  0
  -18.2254   36.7048  -21.6160 O   0  0  0  0  0  0  0  0  0  0  0  0
  -18.3438   34.3561  -21.1988 O   0  0  0  0  0  0  0  0  0  0  0  0
  -19.3482   33.2582  -21.1400 P   0  0  0  0  0  0  0  0  0  0  0  0
  -19.8768   36.0549  -20.1571 O   0  0  0  0  0  0  0  0  0  0  0  0
  -19.5150   32.5645  -19.9704 O   0  0  0  0  0  0  0  0  0  0  0  0
  -18.6634   32.1255  -22.1658 O   0  0  0  0  0  0  0  0  0  0  0  0
  -18.6650   32.0003  -23.5613 C   0  0  0  0  0  0  0  0  0  0  0  0
  -17.4949   31.1063  -23.9848 C   0  0  0  0  0  0  0  0  0  0  0  0
  -20.6048   33.6830  -21.7840 O   0  0  0  0  0  0  0  0  0  0  0  0
  -16.9497   37.6276  -22.0769 P   0  0  0  0  0  0  0  0  0  0  0  0
  -16.6208   30.9008  -22.9334 N   0  0  0  0  0  0  0  0  0  0  0  0
  -16.3168   36.9307  -23.2409 O   0  0  0  0  0  0  0  0  0  0  0  0
  -17.2592   39.0431  -22.3843 O   0  0  0  0  0  0  0  0  0  0  0  0
  -15.9939   37.5384  -20.8540 O   0  0  0  0  0  0  0  0  0  0  0  0
  -16.8407   32.0677  -24.9988 C   0  0  0  0  0  0  0  0  0  0  0  0
  -16.5464   30.0186  -22.1730 C   0  0  0  0  0  0  0  0  0  0  0  0
  -15.2490   29.5071  -21.6991 O   0  0  0  0  0  0  0  0  0  0  0  0
  -17.0419   31.8613  -26.2984 O   0  0  0  0  0  0  0  0  0  0  0  0
  -17.8649   32.9181  -26.8343 C   0  0  0  0  0  0  0  0  0  0  0  0
  -17.1441   34.1841  -27.0045 C   0  0  0  0  0  0  0  0  0  0  0  0
  -16.4587   34.6123  -25.8385 C   0  0  0  0  0  0  0  0  0  0  0  0
  -16.1052   33.9408  -27.9392 O   0  0  0  0  0  0  0  0  0  0  0  0
  -16.6863   33.6095  -24.8236 C   0  0  0  0  0  0  0  0  0  0  0  0
  -15.0730   34.8452  -25.8669 O   0  0  0  0  0  0  0  0  0  0  0  0
  1  2  1  0
  2  3  1  0
  2  4  1  0
  4  5  1  0
  2  6  2  0
  5  7  2  0
  5  8  1  0
  8  9  1  0
  9 10  1  0
  5 11  1  0
  3 12  1  0
 10 13  1  0
 12 14  1  0
 12 15  2  0
 12 16  1  0
 10 17  1  0
 13 18  1  0
 18 19  2  0
 17 20  1  0
 20 21  1  0
 21 22  1  0
 22 23  1  0
 22 24  1  0
 17 25  1  0
 23 25  1  0
 23 26  1  0
M  END
