
     RDKit          3D

 26 26  0  0  0  0  0  0  0  0999 V2000
  -20.8478   33.4248  -20.3065 O   0  0  0  0  0  0  0  0  0  0  0  0
  -19.4409   33.1702  -20.6718 P   0  0  0  0  0  0  0  0  0  0  0  0
  -18.8028   34.3226  -20.8283 O   0  0  0  0  0  0  0  0  0  0  0  0
  -18.9379   32.0517  -19.8356 O   0  0  0  0  0  0  0  0  0  0  0  0
  -19.1917   35.9962  -21.1701 P   0  0  0  0  0  0  0  0  0  0  0  0
  -19.6224   32.5431  -22.1942 O   0  0  0  0  0  0  0  0  0  0  0  0
  -17.7758   36.5228  -21.3313 O   0  0  0  0  0  0  0  0  0  0  0  0
  -17.3168   37.7204  -22.2023 P   0  0  0  0  0  0  0  0  0  0  0  0
  -19.9873   35.9516  -22.3087 O   0  0  0  0  0  0  0  0  0  0  0  0
  -18.4401   32.5144  -23.1411 C   0  0  0  0  0  0  0  0  0  0  0  0
  -16.2467   37.1902  -22.9309 O   0  0  0  0  0  0  0  0  0  0  0  0
  -19.7749   36.6948  -20.0689 O   0  0  0  0  0  0  0  0  0  0  0  0
  -16.8536   38.7320  -21.0986 O   0  0  0  0  0  0  0  0  0  0  0  0
  -18.2059   31.4670  -23.7001 C   0  0  0  0  0  0  0  0  0  0  0  0
  -16.7455   31.0782  -23.7341 C   0  0  0  0  0  0  0  0  0  0  0  0
  -18.5132   38.1946  -22.9209 O   0  0  0  0  0  0  0  0  0  0  0  0
  -16.3264   30.2245  -22.6589 C   0  0  0  0  0  0  0  0  0  0  0  0
  -19.0487   30.3676  -23.3994 O   0  0  0  0  0  0  0  0  0  0  0  0
  -15.5100   29.2395  -22.8668 O   0  0  0  0  0  0  0  0  0  0  0  0
  -15.3343   28.0298  -21.9510 C   0  0  0  0  0  0  0  0  0  0  0  0
  -16.0252   32.4328  -23.8149 O   0  0  0  0  0  0  0  0  0  0  0  0
  -16.5891   33.2717  -24.7284 C   0  0  0  0  0  0  0  0  0  0  0  0
  -17.9097   33.7620  -23.9937 C   0  0  0  0  0  0  0  0  0  0  0  0
  -18.6101   34.5615  -24.6864 O   0  0  0  0  0  0  0  0  0  0  0  0
  -15.6530   34.4591  -24.8791 C   0  0  0  0  0  0  0  0  0  0  0  0
  -16.1004   35.2239  -25.9078 O   0  0  0  0  0  0  0  0  0  0  0  0
  1  2  1  0
  2  3  1  0
  2  4  2  0
  3  5  1  0
  2  6  1  0
  5  7  1  0
  7  8  1  0
  5  9  2  0
  6 10  1  0
  8 11  1  0
  5 12  1  0
  8 13  1  0
 10 14  1  0
 14 15  1  0
  8 16  2  0
 15 17  1  0
 14 18  1  0
 17 19  1  0
 19 20  1  0
 15 21  1  0
 21 22  1  0
 10 23  1  0
 22 23  1  0
 23 24  1  0
 22 25  1  0
 25 26  1  0
M  END
