
     RDKit          3D

 15 14  0  0  0  0  0  0  0  0999 V2000
  -21.3302   34.3530  -20.9865 O   0  0  0  0  0  0  0  0  0  0  0  0
  -20.0366   34.4489  -21.5346 C   0  0  0  0  0  0  0  0  0  0  0  0
  -19.1106   33.3805  -21.2595 C   0  0  0  0  0  0  0  0  0  0  0  0
  -19.4008   35.7214  -21.3222 C   0  0  0  0  0  0  0  0  0  0  0  0
  -19.2395   32.2286  -22.0625 C   0  0  0  0  0  0  0  0  0  0  0  0
  -18.1699   35.9139  -21.8063 O   0  0  0  0  0  0  0  0  0  0  0  0
  -17.5367   36.9332  -22.7668 P   0  0  0  0  0  0  0  0  0  0  0  0
  -16.1427   37.0788  -22.2978 O   0  0  0  0  0  0  0  0  0  0  0  0
  -18.6163   32.1132  -23.2917 C   0  0  0  0  0  0  0  0  0  0  0  0
  -18.2296   30.9813  -23.8222 O   0  0  0  0  0  0  0  0  0  0  0  0
  -18.1612   33.2195  -23.8331 O   0  0  0  0  0  0  0  0  0  0  0  0
  -17.6701   36.3773  -24.0969 O   0  0  0  0  0  0  0  0  0  0  0  0
  -18.3192   38.2267  -22.4850 O   0  0  0  0  0  0  0  0  0  0  0  0
  -19.3930   33.1052  -19.7662 C   0  0  0  0  0  0  0  0  0  0  0  0
  -19.8503   31.1953  -21.4985 O   0  0  0  0  0  0  0  0  0  0  0  0
  1  2  1  0
  2  3  1  0
  2  4  1  0
  3  5  1  0
  4  6  1  0
  6  7  1  0
  7  8  1  0
  5  9  1  0
  9 10  1  0
  9 11  2  0
  7 12  1  0
  7 13  2  0
  3 14  1  0
  5 15  2  0
M  END
