
     RDKit          3D

 27 28  0  0  0  0  0  0  0  0999 V2000
  -20.8284   33.5030  -20.5234 O   0  0  0  0  0  0  0  0  0  0  0  0
  -19.4119   33.1716  -20.7526 P   0  0  0  0  0  0  0  0  0  0  0  0
  -18.7647   34.2768  -20.8296 O   0  0  0  0  0  0  0  0  0  0  0  0
  -18.2085   35.3187  -21.8300 P   0  0  0  0  0  0  0  0  0  0  0  0
  -19.3353   32.2161  -21.9313 O   0  0  0  0  0  0  0  0  0  0  0  0
  -17.5443   36.4686  -21.0970 O   0  0  0  0  0  0  0  0  0  0  0  0
  -19.3964   35.6870  -22.6098 O   0  0  0  0  0  0  0  0  0  0  0  0
  -17.2013   34.7232  -22.8116 O   0  0  0  0  0  0  0  0  0  0  0  0
  -18.4414   31.4240  -22.4132 C   0  0  0  0  0  0  0  0  0  0  0  0
  -18.6347   30.7275  -23.4968 C   0  0  0  0  0  0  0  0  0  0  0  0
  -19.0173   32.2155  -19.6065 O   0  0  0  0  0  0  0  0  0  0  0  0
  -16.3610   35.5745  -23.9208 P   0  0  0  0  0  0  0  0  0  0  0  0
  -17.7036   31.0503  -24.6017 O   0  0  0  0  0  0  0  0  0  0  0  0
  -17.6199   32.4526  -24.7876 C   0  0  0  0  0  0  0  0  0  0  0  0
  -16.4271   32.8426  -25.5215 C   0  0  0  0  0  0  0  0  0  0  0  0
  -18.8485   32.8212  -25.7284 C   0  0  0  0  0  0  0  0  0  0  0  0
  -16.5432   32.9548  -26.7629 C   0  0  0  0  0  0  0  0  0  0  0  0
  -17.3846   35.9032  -24.9584 O   0  0  0  0  0  0  0  0  0  0  0  0
  -18.1140   33.3995  -26.9483 C   0  0  0  0  0  0  0  0  0  0  0  0
  -15.4237   34.5311  -24.5858 O   0  0  0  0  0  0  0  0  0  0  0  0
  -16.3979   32.0047  -27.8335 C   0  0  0  0  0  0  0  0  0  0  0  0
  -15.3568   33.2045  -24.7951 C   0  0  0  0  0  0  0  0  0  0  0  0
  -15.8092   36.8473  -23.4833 O   0  0  0  0  0  0  0  0  0  0  0  0
  -15.4146   32.4550  -28.8474 C   0  0  0  0  0  0  0  0  0  0  0  0
  -14.9005   31.6905  -29.8036 C   0  0  0  0  0  0  0  0  0  0  0  0
  -14.1647   31.9442  -30.7622 C   0  0  0  0  0  0  0  0  0  0  0  0
  -13.8679   31.4301  -31.8596 C   0  0  0  0  0  0  0  0  0  0  0  0
  1  2  1  0
  2  3  1  0
  3  4  1  0
  2  5  1  0
  4  6  1  0
  4  7  2  0
  4  8  1  0
  5  9  1  0
  9 10  1  0
  2 11  2  0
  8 12  1  0
 10 13  1  0
 13 14  1  0
 14 15  1  0
 14 16  1  0
 15 17  1  0
 12 18  2  0
 16 19  1  0
 17 19  1  0
 12 20  1  0
 17 21  1  0
 15 22  1  0
 20 22  1  0
 12 23  1  0
 21 24  1  0
 24 25  1  0
 25 26  2  3
 26 27  1  0
M  END
