
     RDKit          3D

 27 28  0  0  0  0  0  0  0  0999 V2000
  -16.3208   36.4791  -20.3630 O   0  0  0  0  0  0  0  0  0  0  0  0
  -17.6533   36.8110  -20.6212 P   0  0  0  0  0  0  0  0  0  0  0  0
  -18.0451   35.8662  -21.8615 O   0  0  0  0  0  0  0  0  0  0  0  0
  -17.7271   35.9597  -23.3426 P   0  0  0  0  0  0  0  0  0  0  0  0
  -18.0426   34.7049  -23.9737 O   0  0  0  0  0  0  0  0  0  0  0  0
  -16.1975   36.3002  -23.3274 O   0  0  0  0  0  0  0  0  0  0  0  0
  -18.4897   36.1575  -19.4052 O   0  0  0  0  0  0  0  0  0  0  0  0
  -17.2606   34.1270  -25.0309 C   0  0  0  0  0  0  0  0  0  0  0  0
  -18.6396   37.1640  -23.7382 O   0  0  0  0  0  0  0  0  0  0  0  0
  -17.9768   38.1461  -20.8895 O   0  0  0  0  0  0  0  0  0  0  0  0
  -17.8777   34.1711  -26.2974 C   0  0  0  0  0  0  0  0  0  0  0  0
  -17.2030   34.8248  -27.3058 C   0  0  0  0  0  0  0  0  0  0  0  0
  -18.3019   32.7662  -26.6489 O   0  0  0  0  0  0  0  0  0  0  0  0
  -16.4693   33.9120  -28.1488 C   0  0  0  0  0  0  0  0  0  0  0  0
  -16.5442   32.8292  -24.8283 C   0  0  0  0  0  0  0  0  0  0  0  0
  -17.5553   31.9738  -25.7030 C   0  0  0  0  0  0  0  0  0  0  0  0
  -18.6234   31.4213  -24.6677 C   0  0  0  0  0  0  0  0  0  0  0  0
  -16.3448   32.2233  -23.6385 O   0  0  0  0  0  0  0  0  0  0  0  0
  -17.4790   31.3076  -23.3622 C   0  0  0  0  0  0  0  0  0  0  0  0
  -17.1426   30.0762  -23.0773 O   0  0  0  0  0  0  0  0  0  0  0  0
  -15.2217   34.3931  -28.6537 O   0  0  0  0  0  0  0  0  0  0  0  0
  -15.9355   29.7847  -22.4150 C   0  0  0  0  0  0  0  0  0  0  0  0
  -19.2807   30.4255  -24.6727 O   0  0  0  0  0  0  0  0  0  0  0  0
  -15.6595   28.7115  -22.0265 C   0  0  0  0  0  0  0  0  0  0  0  0
  -16.4040   27.9433  -21.2131 O   0  0  0  0  0  0  0  0  0  0  0  0
  -14.5630   28.0729  -22.5526 O   0  0  0  0  0  0  0  0  0  0  0  0
  -16.3487   35.6816  -26.5394 O   0  0  0  0  0  0  0  0  0  0  0  0
  1  2  1  0
  2  3  1  0
  3  4  1  0
  4  5  1  0
  4  6  2  0
  2  7  1  0
  5  8  1  0
  4  9  1  0
  2 10  2  0
  8 11  1  0
 11 12  1  0
 11 13  1  0
 12 14  1  0
  8 15  1  0
 13 16  1  0
 15 16  1  0
 16 17  1  0
 15 18  1  0
 17 19  1  0
 18 19  1  0
 19 20  1  0
 14 21  1  0
 20 22  1  0
 17 23  1  0
 22 24  1  0
 24 25  2  0
 24 26  1  0
 12 27  1  0
M  END
