
     RDKit          3D

 27 27  0  0  0  0  0  0  0  0999 V2000
  -20.7815   33.7161  -21.0409 O   0  0  0  0  0  0  0  0  0  0  0  0
  -19.5668   33.3291  -20.7166 P   0  0  0  0  0  0  0  0  0  0  0  0
  -18.9088   32.9682  -22.0472 O   0  0  0  0  0  0  0  0  0  0  0  0
  -18.2856   31.5267  -22.4398 C   0  0  0  0  0  0  0  0  0  0  0  0
  -18.6670   34.4248  -20.2355 O   0  0  0  0  0  0  0  0  0  0  0  0
  -17.9783   35.7963  -21.0212 P   0  0  0  0  0  0  0  0  0  0  0  0
  -19.4625   32.3427  -19.6216 O   0  0  0  0  0  0  0  0  0  0  0  0
  -16.7622   36.1884  -20.2912 O   0  0  0  0  0  0  0  0  0  0  0  0
  -17.6189   31.5337  -23.5945 C   0  0  0  0  0  0  0  0  0  0  0  0
  -19.0941   36.8456  -20.9312 O   0  0  0  0  0  0  0  0  0  0  0  0
  -17.7864   35.3985  -22.4300 O   0  0  0  0  0  0  0  0  0  0  0  0
  -16.2652   31.3577  -23.6189 O   0  0  0  0  0  0  0  0  0  0  0  0
  -16.6671   36.0625  -23.4065 P   0  0  0  0  0  0  0  0  0  0  0  0
  -18.0710   32.2760  -24.5928 C   0  0  0  0  0  0  0  0  0  0  0  0
  -15.5146   30.4502  -22.9825 C   0  0  0  0  0  0  0  0  0  0  0  0
  -16.5813   35.1201  -24.5850 O   0  0  0  0  0  0  0  0  0  0  0  0
  -16.2793   29.4021  -22.3200 C   0  0  0  0  0  0  0  0  0  0  0  0
  -15.4723   36.0336  -22.6889 O   0  0  0  0  0  0  0  0  0  0  0  0
  -15.7224   34.1970  -24.9467 C   0  0  0  0  0  0  0  0  0  0  0  0
  -17.4425   37.1719  -23.6026 O   0  0  0  0  0  0  0  0  0  0  0  0
  -19.2167   31.9906  -25.2564 O   0  0  0  0  0  0  0  0  0  0  0  0
  -15.5350   28.6431  -21.3571 O   0  0  0  0  0  0  0  0  0  0  0  0
  -17.0165   32.3392  -25.7723 C   0  0  0  0  0  0  0  0  0  0  0  0
  -16.2201   33.5559  -26.1778 C   0  0  0  0  0  0  0  0  0  0  0  0
  -16.7173   34.2079  -27.2392 C   0  0  0  0  0  0  0  0  0  0  0  0
  -15.9271   34.2021  -28.3458 O   0  0  0  0  0  0  0  0  0  0  0  0
  -17.5730   31.8889  -27.0101 O   0  0  0  0  0  0  0  0  0  0  0  0
  1  2  1  0
  2  3  1  0
  3  4  1  0
  2  5  1  0
  5  6  1  0
  2  7  2  0
  6  8  2  0
  4  9  1  0
  6 10  1  0
  6 11  1  0
  9 12  1  0
 11 13  1  0
  9 14  1  0
 12 15  1  0
 13 16  1  0
 15 17  1  0
 13 18  1  0
 16 19  1  0
 13 20  2  0
 14 21  1  0
 17 22  1  0
 14 23  1  0
 19 24  1  0
 23 24  1  0
 24 25  1  0
 25 26  1  0
 23 27  1  0
M  END
