
     RDKit          3D

 27 26  0  0  0  0  0  0  0  0999 V2000
  -14.3635   27.3093  -22.2965 O   0  0  0  0  0  0  0  0  0  0  0  0
  -15.5291   27.8814  -21.8874 C   0  0  0  0  0  0  0  0  0  0  0  0
  -15.5530   29.3045  -22.1817 N   0  0  0  0  0  0  0  0  0  0  0  0
  -14.6506   30.1020  -22.7992 C   0  0  0  0  0  0  0  0  0  0  0  0
  -15.3788   31.2398  -23.3558 C   0  0  0  0  0  0  0  0  0  0  0  0
  -16.5445   27.3355  -21.3683 N   0  0  0  0  0  0  0  0  0  0  0  0
  -16.8094   31.3466  -23.3270 C   0  0  0  0  0  0  0  0  0  0  0  0
  -17.6342   30.4917  -22.6692 O   0  0  0  0  0  0  0  0  0  0  0  0
  -17.4140   32.3058  -24.1288 N   0  0  0  0  0  0  0  0  0  0  0  0
  -16.5888   33.3026  -24.8939 C   0  0  0  0  0  0  0  0  0  0  0  0
  -18.8221   32.5816  -23.9330 C   0  0  0  0  0  0  0  0  0  0  0  0
  -16.4555   34.5913  -24.3498 C   0  0  0  0  0  0  0  0  0  0  0  0
  -17.1994   33.4374  -26.3270 C   0  0  0  0  0  0  0  0  0  0  0  0
  -19.2441   33.2582  -22.7741 C   0  0  0  0  0  0  0  0  0  0  0  0
  -15.4314   35.2185  -24.2948 O   0  0  0  0  0  0  0  0  0  0  0  0
  -17.4904   35.2914  -23.8154 O   0  0  0  0  0  0  0  0  0  0  0  0
  -17.5009   36.5649  -23.1715 P   0  0  0  0  0  0  0  0  0  0  0  0
  -16.3578   33.4108  -27.3534 C   0  0  0  0  0  0  0  0  0  0  0  0
  -18.7036   32.9863  -21.4225 O   0  0  0  0  0  0  0  0  0  0  0  0
  -19.4376   33.0547  -20.1241 P   0  0  0  0  0  0  0  0  0  0  0  0
  -20.2430   34.3135  -20.2615 O   0  0  0  0  0  0  0  0  0  0  0  0
  -17.0137   36.4732  -21.8178 O   0  0  0  0  0  0  0  0  0  0  0  0
  -18.9958   37.1579  -23.0727 O   0  0  0  0  0  0  0  0  0  0  0  0
  -16.7158   37.4131  -24.0952 O   0  0  0  0  0  0  0  0  0  0  0  0
  -18.4645   33.1051  -19.1029 O   0  0  0  0  0  0  0  0  0  0  0  0
  -20.3430   31.9113  -20.1715 O   0  0  0  0  0  0  0  0  0  0  0  0
  -16.1546   34.7801  -27.8836 C   0  0  0  0  0  0  0  0  0  0  0  0
  1  2  2  0
  2  3  1  0
  3  4  1  0
  4  5  1  0
  2  6  1  0
  5  7  1  0
  7  8  2  0
  7  9  1  0
  9 10  1  0
  9 11  1  0
 10 12  1  0
 10 13  1  0
 11 14  1  0
 12 15  2  0
 12 16  1  0
 16 17  1  0
 13 18  1  0
 14 19  1  0
 19 20  1  0
 20 21  1  0
 17 22  1  0
 17 23  1  0
 17 24  2  0
 20 25  1  0
 20 26  2  0
 18 27  1  0
M  END
