
     RDKit          3D

 27 27  0  0  0  0  0  0  0  0999 V2000
  -20.8284   33.5030  -20.5234 O   0  0  0  0  0  0  0  0  0  0  0  0
  -19.4119   33.1716  -20.7526 P   0  0  0  0  0  0  0  0  0  0  0  0
  -18.7647   34.2768  -20.8296 O   0  0  0  0  0  0  0  0  0  0  0  0
  -18.2085   35.3187  -21.8300 P   0  0  0  0  0  0  0  0  0  0  0  0
  -19.3353   32.2161  -21.9313 O   0  0  0  0  0  0  0  0  0  0  0  0
  -17.5443   36.4686  -21.0970 O   0  0  0  0  0  0  0  0  0  0  0  0
  -19.3964   35.6870  -22.6098 O   0  0  0  0  0  0  0  0  0  0  0  0
  -17.2013   34.7232  -22.8116 O   0  0  0  0  0  0  0  0  0  0  0  0
  -18.4414   31.4240  -22.4132 C   0  0  0  0  0  0  0  0  0  0  0  0
  -17.2309   31.4702  -21.9588 C   0  0  0  0  0  0  0  0  0  0  0  0
  -18.8194   30.6940  -23.6686 C   0  0  0  0  0  0  0  0  0  0  0  0
  -19.0006   32.2132  -19.5912 O   0  0  0  0  0  0  0  0  0  0  0  0
  -20.0052   31.2912  -24.3813 O   0  0  0  0  0  0  0  0  0  0  0  0
  -19.6600   32.2301  -25.3580 C   0  0  0  0  0  0  0  0  0  0  0  0
  -16.2096   30.4737  -22.3379 C   0  0  0  0  0  0  0  0  0  0  0  0
  -20.2401   31.9027  -26.6834 C   0  0  0  0  0  0  0  0  0  0  0  0
  -15.0577   30.8919  -22.9191 O   0  0  0  0  0  0  0  0  0  0  0  0
  -16.3379   29.1632  -22.4149 C   0  0  0  0  0  0  0  0  0  0  0  0
  -17.3869   34.6407  -24.3198 P   0  0  0  0  0  0  0  0  0  0  0  0
  -17.2745   28.4045  -21.8252 O   0  0  0  0  0  0  0  0  0  0  0  0
  -18.1701   32.6052  -25.6069 C   0  0  0  0  0  0  0  0  0  0  0  0
  -15.1738   28.3035  -22.7599 C   0  0  0  0  0  0  0  0  0  0  0  0
  -14.9451   27.2004  -21.9057 O   0  0  0  0  0  0  0  0  0  0  0  0
  -18.1794   35.4698  -25.0069 O   0  0  0  0  0  0  0  0  0  0  0  0
  -17.8045   33.0726  -24.5564 O   0  0  0  0  0  0  0  0  0  0  0  0
  -15.8611   34.5643  -24.8813 O   0  0  0  0  0  0  0  0  0  0  0  0
  -20.4000   32.8256  -27.5170 O   0  0  0  0  0  0  0  0  0  0  0  0
  1  2  1  0
  2  3  1  0
  3  4  1  0
  2  5  1  0
  4  6  1  0
  4  7  2  0
  4  8  1  0
  5  9  1  0
  9 10  2  3
  9 11  1  0
  2 12  2  0
 11 13  1  0
 13 14  1  0
 10 15  1  0
 14 16  1  0
 15 17  1  0
 15 18  2  3
  8 19  1  0
 18 20  1  0
 14 21  1  0
 18 22  1  0
 22 23  1  0
 19 24  2  0
 19 25  1  0
 21 25  1  0
 19 26  1  0
 16 27  1  0
M  END
