
     RDKit          3D

 27 27  0  0  0  0  0  0  0  0999 V2000
  -20.8478   33.4248  -20.3065 O   0  0  0  0  0  0  0  0  0  0  0  0
  -19.4409   33.1702  -20.6718 P   0  0  0  0  0  0  0  0  0  0  0  0
  -18.8028   34.3226  -20.8283 O   0  0  0  0  0  0  0  0  0  0  0  0
  -18.9379   32.0517  -19.8356 O   0  0  0  0  0  0  0  0  0  0  0  0
  -19.1917   35.9962  -21.1701 P   0  0  0  0  0  0  0  0  0  0  0  0
  -19.6224   32.5431  -22.1942 O   0  0  0  0  0  0  0  0  0  0  0  0
  -18.5407   32.5784  -23.2245 C   0  0  0  0  0  0  0  0  0  0  0  0
  -18.1960   31.4571  -23.8609 C   0  0  0  0  0  0  0  0  0  0  0  0
  -16.7217   31.2764  -23.9072 C   0  0  0  0  0  0  0  0  0  0  0  0
  -17.8031   36.6312  -21.1376 O   0  0  0  0  0  0  0  0  0  0  0  0
  -16.0287   30.4757  -22.9717 C   0  0  0  0  0  0  0  0  0  0  0  0
  -19.8223   35.8744  -22.4652 O   0  0  0  0  0  0  0  0  0  0  0  0
  -16.6167   29.3857  -22.4588 N   0  0  0  0  0  0  0  0  0  0  0  0
  -16.5817   36.3830  -22.0436 C   0  0  0  0  0  0  0  0  0  0  0  0
  -15.8448   28.4399  -21.6796 C   0  0  0  0  0  0  0  0  0  0  0  0
  -14.8427   27.8614  -22.4832 O   0  0  0  0  0  0  0  0  0  0  0  0
  -19.8281   36.8799  -20.2610 O   0  0  0  0  0  0  0  0  0  0  0  0
  -16.7624   37.2302  -23.1178 C   0  0  0  0  0  0  0  0  0  0  0  0
  -16.4607   38.4189  -22.8715 O   0  0  0  0  0  0  0  0  0  0  0  0
  -17.3597   36.7776  -24.1509 N   0  0  0  0  0  0  0  0  0  0  0  0
  -17.9930   37.5665  -25.1378 C   0  0  0  0  0  0  0  0  0  0  0  0
  -17.5041   35.2685  -24.4567 C   0  0  0  0  0  0  0  0  0  0  0  0
  -18.3177   35.0162  -25.5921 C   0  0  0  0  0  0  0  0  0  0  0  0
  -18.4163   33.6987  -26.1890 O   0  0  0  0  0  0  0  0  0  0  0  0
  -18.8156   35.9401  -26.3230 N   0  0  0  0  0  0  0  0  0  0  0  0
  -18.6711   37.2384  -26.1846 C   0  0  0  0  0  0  0  0  0  0  0  0
  -19.4526   38.2163  -26.6813 O   0  0  0  0  0  0  0  0  0  0  0  0
  1  2  1  0
  2  3  1  0
  2  4  2  0
  3  5  1  0
  2  6  1  0
  6  7  1  0
  7  8  1  0
  8  9  1  0
  5 10  1  0
  9 11  1  0
  5 12  2  0
 11 13  1  0
 10 14  1  0
 13 15  1  0
 15 16  2  0
  5 17  1  0
 14 18  1  0
 18 19  2  0
 18 20  1  0
 20 21  1  0
 20 22  1  0
 22 23  1  0
 23 24  2  0
 23 25  1  0
 21 26  1  0
 25 26  1  0
 26 27  2  0
M  END
