
     RDKit          3D

 27 29  0  0  0  0  0  0  0  0999 V2000
  -13.8078   27.5966  -22.5660 O   0  0  0  0  0  0  0  0  0  0  0  0
  -15.0881   28.0057  -22.2023 C   0  0  0  0  0  0  0  0  0  0  0  0
  -15.4252   29.3370  -22.3056 C   0  0  0  0  0  0  0  0  0  0  0  0
  -15.9552   27.1892  -21.7760 O   0  0  0  0  0  0  0  0  0  0  0  0
  -16.7923   29.7873  -22.2102 C   0  0  0  0  0  0  0  0  0  0  0  0
  -17.1678   31.1487  -22.5579 C   0  0  0  0  0  0  0  0  0  0  0  0
  -16.6384   31.7458  -23.5924 C   0  0  0  0  0  0  0  0  0  0  0  0
  -17.1727   32.9231  -24.1480 C   0  0  0  0  0  0  0  0  0  0  0  0
  -18.2892   33.3430  -23.5939 N   0  0  0  0  0  0  0  0  0  0  0  0
  -18.6045   31.1067  -22.8738 O   0  0  0  0  0  0  0  0  0  0  0  0
  -16.4594   33.6729  -25.1114 C   0  0  0  0  0  0  0  0  0  0  0  0
  -19.0892   32.4130  -22.9707 C   0  0  0  0  0  0  0  0  0  0  0  0
  -18.7716   34.5900  -24.1814 C   0  0  0  0  0  0  0  0  0  0  0  0
  -20.0454   34.9143  -23.6940 O   0  0  0  0  0  0  0  0  0  0  0  0
  -15.2916   33.1456  -25.7609 O   0  0  0  0  0  0  0  0  0  0  0  0
  -20.1029   35.6811  -22.2670 C   0  0  0  0  0  0  0  0  0  0  0  0
  -17.0631   34.9234  -25.6700 C   0  0  0  0  0  0  0  0  0  0  0  0
  -18.2135   35.3168  -25.1436 C   0  0  0  0  0  0  0  0  0  0  0  0
  -18.7966   36.4328  -25.5071 O   0  0  0  0  0  0  0  0  0  0  0  0
  -20.5800   34.8232  -21.3851 C   0  0  0  0  0  0  0  0  0  0  0  0
  -16.3387   35.5576  -26.6672 O   0  0  0  0  0  0  0  0  0  0  0  0
  -19.6155   33.8312  -20.7445 C   0  0  0  0  0  0  0  0  0  0  0  0
  -19.5279   32.7085  -21.4947 C   0  0  0  0  0  0  0  0  0  0  0  0
  -19.5719   31.5862  -20.7237 O   0  0  0  0  0  0  0  0  0  0  0  0
  -21.7170   34.5628  -21.0365 O   0  0  0  0  0  0  0  0  0  0  0  0
  -16.5382   35.3071  -28.0314 C   0  0  0  0  0  0  0  0  0  0  0  0
  -18.5713   34.5581  -20.3289 O   0  0  0  0  0  0  0  0  0  0  0  0
  1  2  2  0
  2  3  1  0
  2  4  1  0
  3  5  2  3
  5  6  1  0
  6  7  1  0
  7  8  1  0
  8  9  1  0
  6 10  1  0
  8 11  2  0
  9 12  1  0
 10 12  1  0
  9 13  1  0
 13 14  1  0
 11 15  1  0
 14 16  1  0
 11 17  1  0
 13 18  1  0
 17 18  1  0
 18 19  2  0
 16 20  1  0
 17 21  1  0
 20 22  1  0
 12 23  1  0
 22 23  1  0
 23 24  1  0
 20 25  2  0
 21 26  1  0
 22 27  1  0
M  END
