
     RDKit          3D

 27 28  0  0  0  0  0  0  0  0999 V2000
  -16.3208   36.4791  -20.3630 O   0  0  0  0  0  0  0  0  0  0  0  0
  -17.6533   36.8110  -20.6212 P   0  0  0  0  0  0  0  0  0  0  0  0
  -18.0451   35.8662  -21.8615 O   0  0  0  0  0  0  0  0  0  0  0  0
  -17.7271   35.9597  -23.3426 P   0  0  0  0  0  0  0  0  0  0  0  0
  -18.0426   34.7049  -23.9737 O   0  0  0  0  0  0  0  0  0  0  0  0
  -16.1975   36.3002  -23.3274 O   0  0  0  0  0  0  0  0  0  0  0  0
  -18.4897   36.1575  -19.4052 O   0  0  0  0  0  0  0  0  0  0  0  0
  -17.2606   34.1270  -25.0309 C   0  0  0  0  0  0  0  0  0  0  0  0
  -18.6396   37.1640  -23.7382 O   0  0  0  0  0  0  0  0  0  0  0  0
  -17.9768   38.1461  -20.8895 O   0  0  0  0  0  0  0  0  0  0  0  0
  -17.8777   34.1711  -26.2974 C   0  0  0  0  0  0  0  0  0  0  0  0
  -17.4052   33.4572  -27.2651 C   0  0  0  0  0  0  0  0  0  0  0  0
  -19.3242   33.6723  -26.0937 O   0  0  0  0  0  0  0  0  0  0  0  0
  -16.8435   32.7192  -24.9805 C   0  0  0  0  0  0  0  0  0  0  0  0
  -15.8886   32.5321  -24.0042 N   0  0  0  0  0  0  0  0  0  0  0  0
  -15.9789   31.2772  -23.1788 C   0  0  0  0  0  0  0  0  0  0  0  0
  -14.9018   30.6284  -22.7762 N   0  0  0  0  0  0  0  0  0  0  0  0
  -17.1331   30.8215  -22.8167 N   0  0  0  0  0  0  0  0  0  0  0  0
  -18.4412   31.4792  -22.9798 C   0  0  0  0  0  0  0  0  0  0  0  0
  -18.9026   32.3991  -22.1085 N   0  0  0  0  0  0  0  0  0  0  0  0
  -19.7544   32.2706  -20.9688 C   0  0  0  0  0  0  0  0  0  0  0  0
  -19.1364   31.0302  -23.9297 O   0  0  0  0  0  0  0  0  0  0  0  0
  -19.8735   33.5069  -20.2647 C   0  0  0  0  0  0  0  0  0  0  0  0
  -19.9602   31.2356  -20.3159 O   0  0  0  0  0  0  0  0  0  0  0  0
  -16.3534   32.7761  -26.3670 C   0  0  0  0  0  0  0  0  0  0  0  0
  -18.1152   32.4366  -27.8181 O   0  0  0  0  0  0  0  0  0  0  0  0
  -19.3952   32.5836  -27.0185 C   0  0  0  0  0  0  0  0  0  0  0  0
  1  2  1  0
  2  3  1  0
  3  4  1  0
  4  5  1  0
  4  6  2  0
  2  7  1  0
  5  8  1  0
  4  9  1  0
  2 10  2  0
  8 11  1  0
 11 12  1  0
 11 13  1  0
  8 14  1  0
 14 15  1  0
 15 16  1  0
 16 17  1  0
 16 18  2  3
 18 19  1  0
 19 20  1  0
 20 21  1  0
 19 22  2  0
 21 23  1  0
 21 24  2  0
 12 25  1  0
 14 25  1  0
 12 26  1  0
 13 27  1  0
 26 27  1  0
M  END
