
     RDKit          3D

 28 28  0  0  0  0  0  0  0  0999 V2000
  -16.6051   36.0222  -19.5733 O   0  0  0  0  0  0  0  0  0  0  0  0
  -17.4866   36.5328  -20.5089 P   0  0  0  0  0  0  0  0  0  0  0  0
  -17.8698   35.4947  -21.4983 O   0  0  0  0  0  0  0  0  0  0  0  0
  -19.0860   34.5450  -21.2703 P   0  0  0  0  0  0  0  0  0  0  0  0
  -16.4579   37.4319  -21.4550 O   0  0  0  0  0  0  0  0  0  0  0  0
  -18.9621   33.2689  -21.8648 O   0  0  0  0  0  0  0  0  0  0  0  0
  -18.6496   37.3285  -20.0276 O   0  0  0  0  0  0  0  0  0  0  0  0
  -20.3481   35.2690  -21.6934 O   0  0  0  0  0  0  0  0  0  0  0  0
  -18.9481   31.8316  -21.2447 P   0  0  0  0  0  0  0  0  0  0  0  0
  -19.0405   34.3813  -19.6821 O   0  0  0  0  0  0  0  0  0  0  0  0
  -20.1585   31.6039  -21.0051 O   0  0  0  0  0  0  0  0  0  0  0  0
  -18.3418   30.8907  -22.3677 O   0  0  0  0  0  0  0  0  0  0  0  0
  -18.0247   31.7469  -20.1566 O   0  0  0  0  0  0  0  0  0  0  0  0
  -16.8680   30.7116  -22.6866 C   0  0  0  0  0  0  0  0  0  0  0  0
  -16.3352   31.6214  -23.6286 C   0  0  0  0  0  0  0  0  0  0  0  0
  -16.1548   29.9430  -21.7910 C   0  0  0  0  0  0  0  0  0  0  0  0
  -17.1667   32.5185  -24.5211 C   0  0  0  0  0  0  0  0  0  0  0  0
  -16.4819   33.6887  -24.8220 C   0  0  0  0  0  0  0  0  0  0  0  0
  -16.9897   34.4540  -25.9180 C   0  0  0  0  0  0  0  0  0  0  0  0
  -16.1663   28.6738  -21.7101 C   0  0  0  0  0  0  0  0  0  0  0  0
  -15.1428   27.9630  -22.2681 N   0  0  0  0  0  0  0  0  0  0  0  0
  -15.2945   33.8136  -24.3505 C   0  0  0  0  0  0  0  0  0  0  0  0
  -16.3275   34.6613  -26.9820 N   0  0  0  0  0  0  0  0  0  0  0  0
  -17.1278   28.0313  -21.5752 O   0  0  0  0  0  0  0  0  0  0  0  0
  -14.2578   28.4441  -23.1656 O   0  0  0  0  0  0  0  0  0  0  0  0
  -16.5535   33.9685  -28.2252 C   0  0  0  0  0  0  0  0  0  0  0  0
  -14.4408   32.8637  -23.8182 C   0  0  0  0  0  0  0  0  0  0  0  0
  -15.0706   31.7362  -23.5000 C   0  0  0  0  0  0  0  0  0  0  0  0
  1  2  1  0
  2  3  1  0
  3  4  1  0
  2  5  2  0
  4  6  1  0
  2  7  1  0
  4  8  2  0
  6  9  1  0
  4 10  1  0
  9 11  2  0
  9 12  1  0
  9 13  1  0
 12 14  1  0
 14 15  2  3
 14 16  1  0
 15 17  1  0
 17 18  1  0
 18 19  1  0
 16 20  1  0
 20 21  1  0
 18 22  2  0
 19 23  1  0
 20 24  2  0
 21 25  1  0
 23 26  1  0
 22 27  1  0
 15 28  1  0
 27 28  2  0
M  END
