
     RDKit          3D

 28 29  0  0  0  0  0  0  0  0999 V2000
  -21.3302   34.3530  -20.9865 O   0  0  0  0  0  0  0  0  0  0  0  0
  -20.1369   33.8044  -20.6128 P   0  0  0  0  0  0  0  0  0  0  0  0
  -19.1717   34.6903  -20.9021 O   0  0  0  0  0  0  0  0  0  0  0  0
  -19.7925   32.5684  -21.7885 O   0  0  0  0  0  0  0  0  0  0  0  0
  -18.2755   35.1671  -22.0606 P   0  0  0  0  0  0  0  0  0  0  0  0
  -20.0111   33.2147  -19.3158 O   0  0  0  0  0  0  0  0  0  0  0  0
  -17.2637   36.0882  -21.5499 O   0  0  0  0  0  0  0  0  0  0  0  0
  -17.1034   37.1087  -20.2215 P   0  0  0  0  0  0  0  0  0  0  0  0
  -18.9353   31.4908  -21.4928 C   0  0  0  0  0  0  0  0  0  0  0  0
  -19.1336   30.4458  -22.3868 C   0  0  0  0  0  0  0  0  0  0  0  0
  -17.3757   34.0884  -22.6605 O   0  0  0  0  0  0  0  0  0  0  0  0
  -16.0090   36.9243  -19.6959 O   0  0  0  0  0  0  0  0  0  0  0  0
  -19.4607   35.6114  -22.8775 O   0  0  0  0  0  0  0  0  0  0  0  0
  -17.7196   33.2341  -23.9237 C   0  0  0  0  0  0  0  0  0  0  0  0
  -16.6743   32.5547  -24.4515 C   0  0  0  0  0  0  0  0  0  0  0  0
  -17.3794   38.4674  -20.7707 O   0  0  0  0  0  0  0  0  0  0  0  0
  -16.4060   31.4239  -23.8283 O   0  0  0  0  0  0  0  0  0  0  0  0
  -18.3475   36.6839  -19.3016 O   0  0  0  0  0  0  0  0  0  0  0  0
  -17.7802   30.0649  -22.9103 N   0  0  0  0  0  0  0  0  0  0  0  0
  -16.8409   30.7512  -23.2151 C   0  0  0  0  0  0  0  0  0  0  0  0
  -15.7326   30.0626  -22.1914 C   0  0  0  0  0  0  0  0  0  0  0  0
  -15.5922   33.6329  -24.5690 C   0  0  0  0  0  0  0  0  0  0  0  0
  -15.9625   34.8307  -25.2541 C   0  0  0  0  0  0  0  0  0  0  0  0
  -15.3370   30.6027  -21.2561 O   0  0  0  0  0  0  0  0  0  0  0  0
  -15.2845   28.8045  -22.5431 O   0  0  0  0  0  0  0  0  0  0  0  0
  -15.2292   35.5003  -25.7380 O   0  0  0  0  0  0  0  0  0  0  0  0
  -17.2726   34.7828  -25.7270 O   0  0  0  0  0  0  0  0  0  0  0  0
  -18.2289   34.4725  -24.7359 C   0  0  0  0  0  0  0  0  0  0  0  0
  1  2  1  0
  2  3  1  0
  2  4  1  0
  3  5  1  0
  2  6  2  0
  5  7  1  0
  7  8  1  0
  4  9  1  0
  9 10  1  0
  5 11  1  0
  8 12  1  0
  5 13  2  0
 11 14  1  0
 14 15  1  0
  8 16  2  0
 15 17  1  0
  8 18  1  0
 10 19  1  0
 17 20  1  0
 19 20  2  0
 20 21  1  0
 15 22  1  0
 22 23  1  0
 21 24  2  0
 21 25  1  0
 23 26  2  0
 23 27  1  0
 14 28  1  0
 27 28  1  0
M  END
