
     RDKit          3D

 28 28  0  0  0  0  0  0  0  0999 V2000
  -20.8284   33.5030  -20.5234 O   0  0  0  0  0  0  0  0  0  0  0  0
  -19.4119   33.1716  -20.7526 P   0  0  0  0  0  0  0  0  0  0  0  0
  -18.7647   34.2768  -20.8296 O   0  0  0  0  0  0  0  0  0  0  0  0
  -18.2085   35.3187  -21.8300 P   0  0  0  0  0  0  0  0  0  0  0  0
  -19.3353   32.2161  -21.9313 O   0  0  0  0  0  0  0  0  0  0  0  0
  -17.5443   36.4686  -21.0970 O   0  0  0  0  0  0  0  0  0  0  0  0
  -19.3964   35.6870  -22.6098 O   0  0  0  0  0  0  0  0  0  0  0  0
  -17.2013   34.7232  -22.8116 O   0  0  0  0  0  0  0  0  0  0  0  0
  -18.4414   31.4240  -22.4132 C   0  0  0  0  0  0  0  0  0  0  0  0
  -17.2309   31.4702  -21.9588 C   0  0  0  0  0  0  0  0  0  0  0  0
  -18.8194   30.6940  -23.6686 C   0  0  0  0  0  0  0  0  0  0  0  0
  -19.0006   32.2132  -19.5912 O   0  0  0  0  0  0  0  0  0  0  0  0
  -20.0052   31.2912  -24.3813 O   0  0  0  0  0  0  0  0  0  0  0  0
  -19.6600   32.2301  -25.3580 C   0  0  0  0  0  0  0  0  0  0  0  0
  -16.2096   30.4737  -22.3379 C   0  0  0  0  0  0  0  0  0  0  0  0
  -20.2401   31.9027  -26.6834 C   0  0  0  0  0  0  0  0  0  0  0  0
  -21.4933   32.1096  -26.7488 O   0  0  0  0  0  0  0  0  0  0  0  0
  -15.0651   30.8767  -22.9415 O   0  0  0  0  0  0  0  0  0  0  0  0
  -16.1694   29.2829  -21.8341 C   0  0  0  0  0  0  0  0  0  0  0  0
  -18.1700   32.6536  -25.4638 C   0  0  0  0  0  0  0  0  0  0  0  0
  -17.9263   33.9837  -25.5112 O   0  0  0  0  0  0  0  0  0  0  0  0
  -17.1226   34.6904  -26.3283 C   0  0  0  0  0  0  0  0  0  0  0  0
  -16.7383   35.8529  -25.9153 C   0  0  0  0  0  0  0  0  0  0  0  0
  -16.1723   33.8300  -27.0145 O   0  0  0  0  0  0  0  0  0  0  0  0
  -15.1331   28.2933  -22.1925 O   0  0  0  0  0  0  0  0  0  0  0  0
  -16.1064   35.4720  -24.5971 C   0  0  0  0  0  0  0  0  0  0  0  0
  -14.8471   34.9651  -24.7349 O   0  0  0  0  0  0  0  0  0  0  0  0
  -16.6388   35.4679  -23.4276 N   0  0  0  0  0  0  0  0  0  0  0  0
  1  2  1  0
  2  3  1  0
  3  4  1  0
  2  5  1  0
  4  6  1  0
  4  7  2  0
  4  8  1  0
  5  9  1  0
  9 10  2  3
  9 11  1  0
  2 12  2  0
 11 13  1  0
 13 14  1  0
 10 15  1  0
 14 16  1  0
 16 17  1  0
 15 18  1  0
 15 19  2  3
 14 20  1  0
 20 21  1  0
 21 22  1  0
 22 23  1  0
 22 24  1  0
 19 25  1  0
 23 26  1  0
 26 27  2  0
  8 28  1  0
 26 28  1  0
M  END
