
     RDKit          3D

 28 28  0  0  0  0  0  0  0  0999 V2000
  -20.8478   33.4248  -20.3065 O   0  0  0  0  0  0  0  0  0  0  0  0
  -19.4409   33.1702  -20.6718 P   0  0  0  0  0  0  0  0  0  0  0  0
  -18.8028   34.3226  -20.8283 O   0  0  0  0  0  0  0  0  0  0  0  0
  -18.9379   32.0517  -19.8356 O   0  0  0  0  0  0  0  0  0  0  0  0
  -19.1917   35.9962  -21.1701 P   0  0  0  0  0  0  0  0  0  0  0  0
  -19.6224   32.5431  -22.1942 O   0  0  0  0  0  0  0  0  0  0  0  0
  -18.5407   32.5784  -23.2245 C   0  0  0  0  0  0  0  0  0  0  0  0
  -18.1960   31.4571  -23.8609 C   0  0  0  0  0  0  0  0  0  0  0  0
  -16.7217   31.2764  -23.9072 C   0  0  0  0  0  0  0  0  0  0  0  0
  -17.8031   36.6312  -21.1376 O   0  0  0  0  0  0  0  0  0  0  0  0
  -16.0287   30.4757  -22.9717 C   0  0  0  0  0  0  0  0  0  0  0  0
  -19.8223   35.8744  -22.4652 O   0  0  0  0  0  0  0  0  0  0  0  0
  -16.6167   29.3857  -22.4588 N   0  0  0  0  0  0  0  0  0  0  0  0
  -16.5817   36.3830  -22.0436 C   0  0  0  0  0  0  0  0  0  0  0  0
  -15.8448   28.4399  -21.6796 C   0  0  0  0  0  0  0  0  0  0  0  0
  -19.8260   36.8777  -20.2573 O   0  0  0  0  0  0  0  0  0  0  0  0
  -16.7715   37.2091  -23.1366 C   0  0  0  0  0  0  0  0  0  0  0  0
  -14.8514   27.8619  -22.4863 O   0  0  0  0  0  0  0  0  0  0  0  0
  -16.5010   38.3374  -23.0730 O   0  0  0  0  0  0  0  0  0  0  0  0
  -17.0989   36.6178  -24.3180 N   0  0  0  0  0  0  0  0  0  0  0  0
  -16.7015   35.2484  -24.7367 C   0  0  0  0  0  0  0  0  0  0  0  0
  -15.6374   34.8259  -24.4419 O   0  0  0  0  0  0  0  0  0  0  0  0
  -17.3459   34.4557  -25.7874 C   0  0  0  0  0  0  0  0  0  0  0  0
  -17.5486   35.2335  -26.9918 O   0  0  0  0  0  0  0  0  0  0  0  0
  -17.3627   33.1568  -25.8852 C   0  0  0  0  0  0  0  0  0  0  0  0
  -16.9021   34.8519  -28.0258 C   0  0  0  0  0  0  0  0  0  0  0  0
  -18.7678   32.6354  -25.7343 C   0  0  0  0  0  0  0  0  0  0  0  0
  -19.0645   31.5840  -24.9159 N   0  0  0  0  0  0  0  0  0  0  0  0
  1  2  1  0
  2  3  1  0
  2  4  2  0
  3  5  1  0
  2  6  1  0
  6  7  1  0
  7  8  1  0
  8  9  1  0
  5 10  1  0
  9 11  1  0
  5 12  2  0
 11 13  1  0
 10 14  1  0
 13 15  1  0
  5 16  1  0
 14 17  1  0
 15 18  2  0
 17 19  2  0
 17 20  1  0
 20 21  1  0
 21 22  2  0
 21 23  1  0
 23 24  1  0
 23 25  2  0
 24 26  1  0
 25 27  1  0
  8 28  1  0
 27 28  1  0
M  END
