
     RDKit          3D

 28 30  0  0  0  0  0  0  0  0999 V2000
  -17.5652   35.9850  -19.5782 O   0  0  0  0  0  0  0  0  0  0  0  0
  -18.4445   35.8891  -20.5973 P   0  0  0  0  0  0  0  0  0  0  0  0
  -18.2254   36.7048  -21.6160 O   0  0  0  0  0  0  0  0  0  0  0  0
  -18.3438   34.3561  -21.1988 O   0  0  0  0  0  0  0  0  0  0  0  0
  -19.3482   33.2582  -21.1400 P   0  0  0  0  0  0  0  0  0  0  0  0
  -19.8768   36.0549  -20.1571 O   0  0  0  0  0  0  0  0  0  0  0  0
  -19.5150   32.5645  -19.9704 O   0  0  0  0  0  0  0  0  0  0  0  0
  -18.6634   32.1255  -22.1658 O   0  0  0  0  0  0  0  0  0  0  0  0
  -18.6650   32.0003  -23.5613 C   0  0  0  0  0  0  0  0  0  0  0  0
  -17.4949   31.1063  -23.9848 C   0  0  0  0  0  0  0  0  0  0  0  0
  -16.5042   30.9986  -23.0493 O   0  0  0  0  0  0  0  0  0  0  0  0
  -15.9877   29.5888  -22.4993 C   0  0  0  0  0  0  0  0  0  0  0  0
  -20.6454   33.5921  -21.8763 O   0  0  0  0  0  0  0  0  0  0  0  0
  -16.4265   28.6389  -22.6455 O   0  0  0  0  0  0  0  0  0  0  0  0
  -14.6860   29.8041  -22.0373 O   0  0  0  0  0  0  0  0  0  0  0  0
  -16.9325   36.8568  -22.5283 P   0  0  0  0  0  0  0  0  0  0  0  0
  -15.7709   36.4828  -21.9488 O   0  0  0  0  0  0  0  0  0  0  0  0
  -16.8762   32.0861  -25.1288 C   0  0  0  0  0  0  0  0  0  0  0  0
  -15.9854   32.9525  -24.6516 O   0  0  0  0  0  0  0  0  0  0  0  0
  -16.4548   34.3175  -24.7106 C   0  0  0  0  0  0  0  0  0  0  0  0
  -17.9085   32.7470  -25.9291 C   0  0  0  0  0  0  0  0  0  0  0  0
  -16.9866   38.4414  -22.6693 O   0  0  0  0  0  0  0  0  0  0  0  0
  -17.4229   36.3138  -23.8525 O   0  0  0  0  0  0  0  0  0  0  0  0
  -17.8486   34.1728  -25.2742 C   0  0  0  0  0  0  0  0  0  0  0  0
  -15.5884   35.1823  -25.4052 C   0  0  0  0  0  0  0  0  0  0  0  0
  -17.9549   35.2847  -25.9497 O   0  0  0  0  0  0  0  0  0  0  0  0
  -16.8360   36.1121  -25.6142 C   0  0  0  0  0  0  0  0  0  0  0  0
  -17.4749   32.6944  -27.1961 O   0  0  0  0  0  0  0  0  0  0  0  0
  1  2  1  0
  2  3  1  0
  2  4  1  0
  4  5  1  0
  2  6  2  0
  5  7  2  0
  5  8  1  0
  8  9  1  0
  9 10  1  0
 10 11  1  0
 11 12  1  0
  5 13  1  0
 12 14  2  0
 12 15  1  0
  3 16  1  0
 16 17  1  0
 10 18  1  0
 18 19  1  0
 19 20  1  0
 18 21  1  0
 16 22  2  0
 16 23  1  0
 20 24  1  0
 21 24  1  0
 20 25  1  0
 24 26  1  0
 23 27  1  0
 25 27  1  0
 26 27  1  0
 21 28  1  0
M  END
