
     RDKit          3D

 28 29  0  0  0  0  0  0  0  0999 V2000
  -20.8284   33.5030  -20.5234 O   0  0  0  0  0  0  0  0  0  0  0  0
  -19.4119   33.1716  -20.7526 P   0  0  0  0  0  0  0  0  0  0  0  0
  -18.7647   34.2768  -20.8296 O   0  0  0  0  0  0  0  0  0  0  0  0
  -18.2085   35.3187  -21.8300 P   0  0  0  0  0  0  0  0  0  0  0  0
  -19.3353   32.2161  -21.9313 O   0  0  0  0  0  0  0  0  0  0  0  0
  -17.5443   36.4686  -21.0970 O   0  0  0  0  0  0  0  0  0  0  0  0
  -19.3964   35.6870  -22.6098 O   0  0  0  0  0  0  0  0  0  0  0  0
  -17.2013   34.7232  -22.8116 O   0  0  0  0  0  0  0  0  0  0  0  0
  -18.4414   31.4240  -22.4132 C   0  0  0  0  0  0  0  0  0  0  0  0
  -18.6347   30.7275  -23.4968 C   0  0  0  0  0  0  0  0  0  0  0  0
  -19.0173   32.2155  -19.6065 O   0  0  0  0  0  0  0  0  0  0  0  0
  -16.3610   35.5745  -23.9208 P   0  0  0  0  0  0  0  0  0  0  0  0
  -17.7036   31.0503  -24.6017 O   0  0  0  0  0  0  0  0  0  0  0  0
  -17.6199   32.4526  -24.7876 C   0  0  0  0  0  0  0  0  0  0  0  0
  -16.4271   32.8426  -25.5215 C   0  0  0  0  0  0  0  0  0  0  0  0
  -18.8485   32.8212  -25.7284 C   0  0  0  0  0  0  0  0  0  0  0  0
  -16.5432   32.9548  -26.7629 C   0  0  0  0  0  0  0  0  0  0  0  0
  -17.3846   35.9032  -24.9584 O   0  0  0  0  0  0  0  0  0  0  0  0
  -15.3954   34.5021  -24.5074 O   0  0  0  0  0  0  0  0  0  0  0  0
  -15.7650   36.8528  -23.4157 O   0  0  0  0  0  0  0  0  0  0  0  0
  -18.0934   33.1808  -27.0454 C   0  0  0  0  0  0  0  0  0  0  0  0
  -16.3358   31.9583  -27.7549 C   0  0  0  0  0  0  0  0  0  0  0  0
  -15.4851   33.4821  -24.8093 N   0  0  0  0  0  0  0  0  0  0  0  0
  -15.3061   32.5404  -28.6223 C   0  0  0  0  0  0  0  0  0  0  0  0
  -14.7598   31.9183  -29.7401 C   0  0  0  0  0  0  0  0  0  0  0  0
  -14.7762   30.7965  -29.9778 O   0  0  0  0  0  0  0  0  0  0  0  0
  -13.9263   32.6164  -30.4652 O   0  0  0  0  0  0  0  0  0  0  0  0
  -13.9930   32.6528  -31.9183 C   0  0  0  0  0  0  0  0  0  0  0  0
  1  2  1  0
  2  3  1  0
  3  4  1  0
  2  5  1  0
  4  6  1  0
  4  7  2  0
  4  8  1  0
  5  9  1  0
  9 10  1  0
  2 11  2  0
  8 12  1  0
 10 13  1  0
 13 14  1  0
 14 15  1  0
 14 16  1  0
 15 17  1  0
 12 18  2  0
 12 19  1  0
 12 20  1  0
 16 21  1  0
 17 21  1  0
 17 22  1  0
 15 23  2  0
 19 23  1  0
 22 24  1  0
 24 25  1  0
 25 26  2  0
 25 27  1  0
 27 28  1  0
M  END
