
     RDKit          3D

 28 29  0  0  0  0  0  0  0  0999 V2000
  -16.3208   36.4791  -20.3630 O   0  0  0  0  0  0  0  0  0  0  0  0
  -17.6533   36.8110  -20.6212 P   0  0  0  0  0  0  0  0  0  0  0  0
  -18.0451   35.8662  -21.8615 O   0  0  0  0  0  0  0  0  0  0  0  0
  -17.7271   35.9597  -23.3426 P   0  0  0  0  0  0  0  0  0  0  0  0
  -18.0426   34.7049  -23.9737 O   0  0  0  0  0  0  0  0  0  0  0  0
  -16.1975   36.3002  -23.3274 O   0  0  0  0  0  0  0  0  0  0  0  0
  -18.4897   36.1575  -19.4052 O   0  0  0  0  0  0  0  0  0  0  0  0
  -17.2606   34.1270  -25.0309 C   0  0  0  0  0  0  0  0  0  0  0  0
  -18.6396   37.1640  -23.7382 O   0  0  0  0  0  0  0  0  0  0  0  0
  -17.9768   38.1461  -20.8895 O   0  0  0  0  0  0  0  0  0  0  0  0
  -17.8777   34.1711  -26.2974 C   0  0  0  0  0  0  0  0  0  0  0  0
  -17.2030   34.8248  -27.3058 C   0  0  0  0  0  0  0  0  0  0  0  0
  -18.3019   32.7662  -26.6489 O   0  0  0  0  0  0  0  0  0  0  0  0
  -16.4693   33.9120  -28.1488 C   0  0  0  0  0  0  0  0  0  0  0  0
  -16.5442   32.8292  -24.8283 C   0  0  0  0  0  0  0  0  0  0  0  0
  -17.5553   31.9738  -25.7030 C   0  0  0  0  0  0  0  0  0  0  0  0
  -18.6234   31.4213  -24.6677 C   0  0  0  0  0  0  0  0  0  0  0  0
  -16.5832   32.2764  -23.5343 O   0  0  0  0  0  0  0  0  0  0  0  0
  -19.2653   30.3569  -25.0424 O   0  0  0  0  0  0  0  0  0  0  0  0
  -17.6193   31.2709  -23.4529 C   0  0  0  0  0  0  0  0  0  0  0  0
  -18.3723   31.4310  -22.1483 C   0  0  0  0  0  0  0  0  0  0  0  0
  -15.3863   34.4354  -28.9403 O   0  0  0  0  0  0  0  0  0  0  0  0
  -16.3137   35.6783  -26.5642 O   0  0  0  0  0  0  0  0  0  0  0  0
  -18.4928   32.5277  -21.4811 O   0  0  0  0  0  0  0  0  0  0  0  0
  -19.7110   33.0308  -20.5783 P   0  0  0  0  0  0  0  0  0  0  0  0
  -20.9230   33.0294  -21.3621 O   0  0  0  0  0  0  0  0  0  0  0  0
  -19.4267   34.4612  -20.0905 O   0  0  0  0  0  0  0  0  0  0  0  0
  -19.7268   31.9189  -19.5599 O   0  0  0  0  0  0  0  0  0  0  0  0
  1  2  1  0
  2  3  1  0
  3  4  1  0
  4  5  1  0
  4  6  2  0
  2  7  1  0
  5  8  1  0
  4  9  1  0
  2 10  2  0
  8 11  1  0
 11 12  1  0
 11 13  1  0
 12 14  1  0
  8 15  1  0
 13 16  1  0
 15 16  1  0
 16 17  1  0
 15 18  1  0
 17 19  1  0
 17 20  1  0
 18 20  1  0
 20 21  1  0
 14 22  1  0
 12 23  1  0
 21 24  1  0
 24 25  1  0
 25 26  2  0
 25 27  1  0
 25 28  1  0
M  END
