
     RDKit          3D

 15 15  0  0  0  0  0  0  0  0999 V2000
  -20.2273   31.0691  -20.7627 O   0  0  0  0  0  0  0  0  0  0  0  0
  -19.5442   32.2655  -20.7148 P   0  0  0  0  0  0  0  0  0  0  0  0
  -18.9812   32.4817  -19.5451 O   0  0  0  0  0  0  0  0  0  0  0  0
  -20.5830   33.4038  -21.0155 O   0  0  0  0  0  0  0  0  0  0  0  0
  -18.4166   32.3527  -21.7858 O   0  0  0  0  0  0  0  0  0  0  0  0
  -18.4821   32.1186  -23.0523 C   0  0  0  0  0  0  0  0  0  0  0  0
  -18.0210   33.0535  -23.8854 C   0  0  0  0  0  0  0  0  0  0  0  0
  -17.3429   32.7351  -25.0274 O   0  0  0  0  0  0  0  0  0  0  0  0
  -19.1810   34.0044  -24.3788 C   0  0  0  0  0  0  0  0  0  0  0  0
  -19.3209   33.8663  -25.7010 C   0  0  0  0  0  0  0  0  0  0  0  0
  -19.4906   35.1331  -26.4210 O   0  0  0  0  0  0  0  0  0  0  0  0
  -17.9639   32.9447  -26.2786 C   0  0  0  0  0  0  0  0  0  0  0  0
  -18.3777   31.9465  -27.0379 N   0  0  0  0  0  0  0  0  0  0  0  0
  -19.0503   35.3553  -23.8836 O   0  0  0  0  0  0  0  0  0  0  0  0
  -19.5953   32.1775  -27.7450 C   0  0  0  0  0  0  0  0  0  0  0  0
  1  2  1  0
  2  3  1  0
  2  4  2  0
  2  5  1  0
  5  6  1  0
  6  7  1  0
  7  8  1  0
  7  9  1  0
  9 10  1  0
 10 11  1  0
  8 12  1  0
 10 12  1  0
 12 13  1  0
  9 14  1  0
 13 15  1  0
M  END
