
     RDKit          3D

 28 28  0  0  0  0  0  0  0  0999 V2000
  -21.3302   34.3530  -20.9865 O   0  0  0  0  0  0  0  0  0  0  0  0
  -19.9010   33.9734  -20.9391 P   0  0  0  0  0  0  0  0  0  0  0  0
  -19.2753   33.4194  -22.1837 O   0  0  0  0  0  0  0  0  0  0  0  0
  -18.7100   35.0903  -20.8929 O   0  0  0  0  0  0  0  0  0  0  0  0
  -19.6807   33.1216  -19.6207 O   0  0  0  0  0  0  0  0  0  0  0  0
  -18.3506   36.3501  -20.1369 P   0  0  0  0  0  0  0  0  0  0  0  0
  -17.0506   36.8440  -20.7271 O   0  0  0  0  0  0  0  0  0  0  0  0
  -19.3721   37.4083  -20.5630 O   0  0  0  0  0  0  0  0  0  0  0  0
  -18.5217   32.0573  -22.3483 P   0  0  0  0  0  0  0  0  0  0  0  0
  -18.1209   36.2085  -18.7026 O   0  0  0  0  0  0  0  0  0  0  0  0
  -17.1831   32.1151  -22.3113 O   0  0  0  0  0  0  0  0  0  0  0  0
  -18.9941   31.2588  -23.6166 O   0  0  0  0  0  0  0  0  0  0  0  0
  -19.1083   31.0040  -21.2880 O   0  0  0  0  0  0  0  0  0  0  0  0
  -16.1596   31.1486  -22.7424 C   0  0  0  0  0  0  0  0  0  0  0  0
  -15.4790   31.5490  -23.7953 C   0  0  0  0  0  0  0  0  0  0  0  0
  -15.8763   32.3712  -24.7471 N   0  0  0  0  0  0  0  0  0  0  0  0
  -16.0547   30.0007  -22.0130 C   0  0  0  0  0  0  0  0  0  0  0  0
  -15.3125   29.1161  -22.5552 C   0  0  0  0  0  0  0  0  0  0  0  0
  -15.9378   33.8626  -24.5619 C   0  0  0  0  0  0  0  0  0  0  0  0
  -14.4465   29.2536  -23.6156 C   0  0  0  0  0  0  0  0  0  0  0  0
  -14.6695   30.4794  -24.4222 C   0  0  0  0  0  0  0  0  0  0  0  0
  -15.1674   27.7310  -21.7613 C   0  0  0  0  0  0  0  0  0  0  0  0
  -16.4527   34.6057  -25.6199 C   0  0  0  0  0  0  0  0  0  0  0  0
  -14.0409   27.0753  -22.0684 O   0  0  0  0  0  0  0  0  0  0  0  0
  -16.2454   27.2204  -21.3878 O   0  0  0  0  0  0  0  0  0  0  0  0
  -16.7142   33.8756  -26.7966 C   0  0  0  0  0  0  0  0  0  0  0  0
  -15.5471   35.6860  -25.9833 O   0  0  0  0  0  0  0  0  0  0  0  0
  -15.9144   34.0062  -27.8526 O   0  0  0  0  0  0  0  0  0  0  0  0
  1  2  2  0
  2  3  1  0
  2  4  1  0
  2  5  1  0
  4  6  1  0
  6  7  2  0
  6  8  1  0
  3  9  1  0
  6 10  1  0
  9 11  1  0
  9 12  2  0
  9 13  1  0
 11 14  1  0
 14 15  1  0
 15 16  1  0
 14 17  2  0
 17 18  1  0
 16 19  1  0
 18 20  2  0
 15 21  2  0
 20 21  1  0
 18 22  1  0
 19 23  1  0
 22 24  2  0
 22 25  1  0
 23 26  1  0
 23 27  1  0
 26 28  1  0
M  END
