
     RDKit          3D

 28 28  0  0  0  0  0  0  0  0999 V2000
  -21.3302   34.3530  -20.9865 O   0  0  0  0  0  0  0  0  0  0  0  0
  -19.9010   33.9734  -20.9391 P   0  0  0  0  0  0  0  0  0  0  0  0
  -19.2753   33.4194  -22.1837 O   0  0  0  0  0  0  0  0  0  0  0  0
  -18.7100   35.0903  -20.8929 O   0  0  0  0  0  0  0  0  0  0  0  0
  -19.6807   33.1216  -19.6207 O   0  0  0  0  0  0  0  0  0  0  0  0
  -18.3506   36.3501  -20.1369 P   0  0  0  0  0  0  0  0  0  0  0  0
  -17.0506   36.8440  -20.7271 O   0  0  0  0  0  0  0  0  0  0  0  0
  -19.3721   37.4083  -20.5630 O   0  0  0  0  0  0  0  0  0  0  0  0
  -18.5217   32.0573  -22.3483 P   0  0  0  0  0  0  0  0  0  0  0  0
  -18.1209   36.2085  -18.7026 O   0  0  0  0  0  0  0  0  0  0  0  0
  -17.1831   32.1151  -22.3113 O   0  0  0  0  0  0  0  0  0  0  0  0
  -18.9941   31.2588  -23.6166 O   0  0  0  0  0  0  0  0  0  0  0  0
  -16.1186   31.1598  -22.7760 C   0  0  0  0  0  0  0  0  0  0  0  0
  -19.0836   31.1553  -21.1285 O   0  0  0  0  0  0  0  0  0  0  0  0
  -15.8531   30.0692  -21.9137 C   0  0  0  0  0  0  0  0  0  0  0  0
  -14.9319   31.7996  -23.2250 C   0  0  0  0  0  0  0  0  0  0  0  0
  -15.3792   32.9770  -24.1379 N   0  0  0  0  0  0  0  0  0  0  0  0
  -15.5606   30.2434  -20.8039 O   0  0  0  0  0  0  0  0  0  0  0  0
  -15.6204   28.8655  -22.5367 O   0  0  0  0  0  0  0  0  0  0  0  0
  -16.6500   33.4004  -24.5083 C   0  0  0  0  0  0  0  0  0  0  0  0
  -16.9377   34.8705  -24.3349 C   0  0  0  0  0  0  0  0  0  0  0  0
  -17.4140   32.8592  -25.4103 C   0  0  0  0  0  0  0  0  0  0  0  0
  -15.3446   27.5839  -21.8637 C   0  0  0  0  0  0  0  0  0  0  0  0
  -17.3063   31.4800  -25.8352 C   0  0  0  0  0  0  0  0  0  0  0  0
  -16.0849   35.6680  -23.4457 O   0  0  0  0  0  0  0  0  0  0  0  0
  -18.0246   35.5355  -24.8378 C   0  0  0  0  0  0  0  0  0  0  0  0
  -18.9199   34.8769  -25.6370 C   0  0  0  0  0  0  0  0  0  0  0  0
  -18.6157   33.5237  -25.9500 C   0  0  0  0  0  0  0  0  0  0  0  0
  1  2  2  0
  2  3  1  0
  2  4  1  0
  2  5  1  0
  4  6  1  0
  6  7  2  0
  6  8  1  0
  3  9  1  0
  6 10  1  0
  9 11  1  0
  9 12  2  0
 11 13  1  0
  9 14  1  0
 13 15  1  0
 13 16  1  0
 16 17  1  0
 15 18  2  0
 15 19  1  0
 17 20  1  0
 20 21  1  0
 20 22  2  0
 19 23  1  0
 22 24  1  0
 21 25  1  0
 21 26  2  0
 26 27  1  0
 22 28  1  0
 27 28  2  0
M  END
