
     RDKit          3D

 16 15  0  0  0  0  0  0  0  0999 V2000
  -16.6579   36.2371  -19.6971 O   0  0  0  0  0  0  0  0  0  0  0  0
  -17.8267   36.4497  -20.3181 P   0  0  0  0  0  0  0  0  0  0  0  0
  -17.9547   35.4865  -21.4812 O   0  0  0  0  0  0  0  0  0  0  0  0
  -17.8632   35.6282  -22.9106 P   0  0  0  0  0  0  0  0  0  0  0  0
  -19.0277   36.0568  -19.3277 O   0  0  0  0  0  0  0  0  0  0  0  0
  -17.9935   37.7869  -20.9695 O   0  0  0  0  0  0  0  0  0  0  0  0
  -18.2017   34.4351  -23.6871 O   0  0  0  0  0  0  0  0  0  0  0  0
  -17.4071   33.6726  -24.6833 C   0  0  0  0  0  0  0  0  0  0  0  0
  -17.6036   33.9447  -25.8892 C   0  0  0  0  0  0  0  0  0  0  0  0
  -16.7744   33.4108  -26.8595 C   0  0  0  0  0  0  0  0  0  0  0  0
  -16.7800   32.3140  -27.1368 C   0  0  0  0  0  0  0  0  0  0  0  0
  -18.4380   36.8562  -23.5589 O   0  0  0  0  0  0  0  0  0  0  0  0
  -15.7399   34.4004  -27.3163 C   0  0  0  0  0  0  0  0  0  0  0  0
  -16.2979   35.9165  -23.2634 O   0  0  0  0  0  0  0  0  0  0  0  0
  -15.5858   35.4893  -26.5598 C   0  0  0  0  0  0  0  0  0  0  0  0
  -16.1067   34.6677  -28.5986 C   0  0  0  0  0  0  0  0  0  0  0  0
  1  2  1  0
  2  3  1  0
  3  4  1  0
  2  5  1  0
  2  6  2  0
  4  7  1  0
  7  8  1  0
  8  9  1  0
  9 10  1  0
 10 11  2  0
  4 12  2  0
 10 13  1  0
  4 14  1  0
 13 15  1  0
 13 16  1  0
M  END
