
     RDKit          3D

 16 16  0  0  0  0  0  0  0  0999 V2000
  -20.2273   31.0691  -20.7627 O   0  0  0  0  0  0  0  0  0  0  0  0
  -19.2738   32.0006  -20.9722 P   0  0  0  0  0  0  0  0  0  0  0  0
  -19.5921   33.1842  -20.3618 O   0  0  0  0  0  0  0  0  0  0  0  0
  -19.1658   32.3572  -22.5662 O   0  0  0  0  0  0  0  0  0  0  0  0
  -18.4163   31.3835  -23.5035 C   0  0  0  0  0  0  0  0  0  0  0  0
  -17.1938   31.8855  -24.0256 C   0  0  0  0  0  0  0  0  0  0  0  0
  -18.0883   31.6254  -20.5208 O   0  0  0  0  0  0  0  0  0  0  0  0
  -17.3995   32.9368  -24.8236 N   0  0  0  0  0  0  0  0  0  0  0  0
  -16.7743   34.1812  -24.7952 C   0  0  0  0  0  0  0  0  0  0  0  0
  -17.8827   32.6713  -26.2742 C   0  0  0  0  0  0  0  0  0  0  0  0
  -16.1944   34.5942  -23.8318 O   0  0  0  0  0  0  0  0  0  0  0  0
  -17.8582   33.8384  -27.0384 C   0  0  0  0  0  0  0  0  0  0  0  0
  -16.9534   34.8623  -26.1114 C   0  0  0  0  0  0  0  0  0  0  0  0
  -16.1093   35.5940  -26.6939 O   0  0  0  0  0  0  0  0  0  0  0  0
  -17.1073   33.6526  -28.3145 C   0  0  0  0  0  0  0  0  0  0  0  0
  -19.1120   34.2244  -27.5794 C   0  0  0  0  0  0  0  0  0  0  0  0
  1  2  1  0
  2  3  1  0
  2  4  1  0
  4  5  1  0
  5  6  1  0
  2  7  2  0
  6  8  1  0
  8  9  1  0
  8 10  1  0
  9 11  2  0
 10 12  1  0
  9 13  1  0
 12 13  1  0
 13 14  1  0
 12 15  1  0
 12 16  1  0
M  END
