
     RDKit          3D

 16 16  0  0  0  0  0  0  0  0999 V2000
  -14.3944   27.4003  -22.5807 O   0  0  0  0  0  0  0  0  0  0  0  0
  -15.4790   27.8942  -21.9156 C   0  0  0  0  0  0  0  0  0  0  0  0
  -16.4218   27.3368  -21.5436 O   0  0  0  0  0  0  0  0  0  0  0  0
  -15.5622   29.4255  -21.9243 C   0  0  0  0  0  0  0  0  0  0  0  0
  -14.7757   30.1582  -22.7468 C   0  0  0  0  0  0  0  0  0  0  0  0
  -15.2048   31.3073  -23.2655 C   0  0  0  0  0  0  0  0  0  0  0  0
  -14.3500   31.9980  -24.2040 O   0  0  0  0  0  0  0  0  0  0  0  0
  -16.2740   31.9860  -22.8097 C   0  0  0  0  0  0  0  0  0  0  0  0
  -17.3929   31.4453  -22.2807 O   0  0  0  0  0  0  0  0  0  0  0  0
  -16.7821   33.2022  -23.6932 C   0  0  0  0  0  0  0  0  0  0  0  0
  -18.0200   33.5135  -23.5011 C   0  0  0  0  0  0  0  0  0  0  0  0
  -18.6178   32.4631  -22.5717 C   0  0  0  0  0  0  0  0  0  0  0  0
  -18.7262   34.4363  -24.0341 O   0  0  0  0  0  0  0  0  0  0  0  0
  -19.2602   32.9438  -21.3063 C   0  0  0  0  0  0  0  0  0  0  0  0
  -20.2761   32.1767  -20.9121 O   0  0  0  0  0  0  0  0  0  0  0  0
  -18.6963   33.6807  -20.5907 O   0  0  0  0  0  0  0  0  0  0  0  0
  1  2  2  0
  2  3  1  0
  2  4  1  0
  4  5  2  3
  5  6  1  0
  6  7  1  0
  6  8  2  3
  8  9  1  0
  8 10  1  0
 10 11  1  0
  9 12  1  0
 11 12  1  0
 11 13  2  0
 12 14  1  0
 14 15  2  0
 14 16  1  0
M  END
