
     RDKit          3D

 17 17  0  0  0  0  0  0  0  0999 V2000
  -20.8284   33.5030  -20.5234 O   0  0  0  0  0  0  0  0  0  0  0  0
  -19.4119   33.1716  -20.7526 P   0  0  0  0  0  0  0  0  0  0  0  0
  -18.7647   34.2768  -20.8296 O   0  0  0  0  0  0  0  0  0  0  0  0
  -18.2085   35.3187  -21.8300 P   0  0  0  0  0  0  0  0  0  0  0  0
  -19.3353   32.2161  -21.9313 O   0  0  0  0  0  0  0  0  0  0  0  0
  -17.5443   36.4686  -21.0970 O   0  0  0  0  0  0  0  0  0  0  0  0
  -19.3964   35.6870  -22.6098 O   0  0  0  0  0  0  0  0  0  0  0  0
  -17.2013   34.7232  -22.8116 O   0  0  0  0  0  0  0  0  0  0  0  0
  -18.4414   31.4240  -22.4132 C   0  0  0  0  0  0  0  0  0  0  0  0
  -17.2309   31.4702  -21.9588 C   0  0  0  0  0  0  0  0  0  0  0  0
  -18.7159   30.9963  -23.8364 C   0  0  0  0  0  0  0  0  0  0  0  0
  -16.1447   30.7525  -22.4929 C   0  0  0  0  0  0  0  0  0  0  0  0
  -14.9571   30.5050  -21.8760 F   0  0  0  0  0  0  0  0  0  0  0  0
  -16.4059   30.1341  -23.7345 C   0  0  0  0  0  0  0  0  0  0  0  0
  -17.6560   30.2897  -24.3663 C   0  0  0  0  0  0  0  0  0  0  0  0
  -18.9280   32.1855  -19.6157 O   0  0  0  0  0  0  0  0  0  0  0  0
  -15.3245   29.2968  -24.2157 O   0  0  0  0  0  0  0  0  0  0  0  0
  1  2  1  0
  2  3  1  0
  3  4  1  0
  2  5  1  0
  4  6  1  0
  4  7  2  0
  4  8  1  0
  5  9  1  0
  9 10  2  0
  9 11  1  0
 10 12  1  0
 12 13  1  0
 12 14  2  0
 11 15  2  0
 14 15  1  0
  2 16  2  0
 14 17  1  0
M  END
