
     RDKit          3D

  5  4  0  0  0  0  0  0  0  0999 V2000
  -13.8270   27.2793  -22.5350 O   0  0  0  0  0  0  0  0  0  0  0  0
  -14.7754   27.3195  -21.6751 C   0  0  0  0  0  0  0  0  0  0  0  0
  -15.6914   28.4187  -22.1434 C   0  0  0  0  0  0  0  0  0  0  0  0
  -16.9212   28.1815  -22.2643 O   0  0  0  0  0  0  0  0  0  0  0  0
  -15.3409   29.7248  -22.2844 O   0  0  0  0  0  0  0  0  0  0  0  0
  1  2  1  0
  2  3  1  0
  3  4  2  0
  3  5  1  0
M  END
