
     RDKit          3D

 17 18  0  0  0  0  0  0  0  0999 V2000
  -13.6711   27.1792  -22.1409 O   0  0  0  0  0  0  0  0  0  0  0  0
  -14.9311   27.5422  -22.0185 C   0  0  0  0  0  0  0  0  0  0  0  0
  -15.2310   28.9226  -22.4478 C   0  0  0  0  0  0  0  0  0  0  0  0
  -16.5397   29.4250  -22.2272 C   0  0  0  0  0  0  0  0  0  0  0  0
  -14.3816   29.9806  -22.8182 C   0  0  0  0  0  0  0  0  0  0  0  0
  -15.9220   26.8933  -21.9564 N   0  0  0  0  0  0  0  0  0  0  0  0
  -17.5467   28.5928  -21.9433 O   0  0  0  0  0  0  0  0  0  0  0  0
  -17.0196   30.7406  -22.5715 C   0  0  0  0  0  0  0  0  0  0  0  0
  -17.2220   27.2475  -21.9180 C   0  0  0  0  0  0  0  0  0  0  0  0
  -13.0847   29.6556  -23.0253 N   0  0  0  0  0  0  0  0  0  0  0  0
  -17.8839   26.4119  -22.7965 C   0  0  0  0  0  0  0  0  0  0  0  0
  -14.7897   31.2415  -23.1054 C   0  0  0  0  0  0  0  0  0  0  0  0
  -18.4276   31.0741  -22.3669 C   0  0  0  0  0  0  0  0  0  0  0  0
  -16.0237   31.6193  -23.0511 C   0  0  0  0  0  0  0  0  0  0  0  0
  -19.1777   31.0533  -23.1217 O   0  0  0  0  0  0  0  0  0  0  0  0
  -18.8485   31.3233  -21.1235 N   0  0  0  0  0  0  0  0  0  0  0  0
  -20.1750   31.7764  -20.8481 O   0  0  0  0  0  0  0  0  0  0  0  0
  1  2  2  0
  2  3  1  0
  3  4  2  0
  3  5  1  0
  2  6  1  0
  4  7  1  0
  4  8  1  0
  6  9  1  0
  7  9  1  0
  5 10  1  0
  9 11  1  0
  5 12  2  0
  8 13  1  0
  8 14  2  0
 12 14  1  0
 13 15  2  0
 13 16  1  0
 16 17  1  0
M  END
