
     RDKit          3D

 18 18  0  0  0  0  0  0  0  0999 V2000
  -13.8270   27.2793  -22.5350 O   0  0  0  0  0  0  0  0  0  0  0  0
  -14.7754   27.3195  -21.6751 C   0  0  0  0  0  0  0  0  0  0  0  0
  -15.6914   28.4187  -22.1434 C   0  0  0  0  0  0  0  0  0  0  0  0
  -15.2083   29.8087  -22.3192 C   0  0  0  0  0  0  0  0  0  0  0  0
  -16.2071   30.7483  -22.8858 C   0  0  0  0  0  0  0  0  0  0  0  0
  -15.7904   31.6589  -23.8690 C   0  0  0  0  0  0  0  0  0  0  0  0
  -16.8581   32.5463  -24.5078 C   0  0  0  0  0  0  0  0  0  0  0  0
  -16.8015   32.4385  -25.8563 C   0  0  0  0  0  0  0  0  0  0  0  0
  -17.7627   33.3611  -23.8402 C   0  0  0  0  0  0  0  0  0  0  0  0
  -17.9912   33.4760  -22.4690 O   0  0  0  0  0  0  0  0  0  0  0  0
  -17.7072   33.2666  -26.6728 C   0  0  0  0  0  0  0  0  0  0  0  0
  -19.0786   32.9339  -21.6204 P   0  0  0  0  0  0  0  0  0  0  0  0
  -18.8703   33.9931  -24.5612 C   0  0  0  0  0  0  0  0  0  0  0  0
  -17.5670   33.2957  -28.0928 F   0  0  0  0  0  0  0  0  0  0  0  0
  -18.7201   34.0456  -26.0537 C   0  0  0  0  0  0  0  0  0  0  0  0
  -19.4150   33.6422  -20.4700 O   0  0  0  0  0  0  0  0  0  0  0  0
  -20.2014   32.7319  -22.4884 O   0  0  0  0  0  0  0  0  0  0  0  0
  -18.5299   31.5344  -21.0946 O   0  0  0  0  0  0  0  0  0  0  0  0
  1  2  1  0
  2  3  1  0
  3  4  1  0
  4  5  1  0
  5  6  2  3
  6  7  1  0
  7  8  2  0
  7  9  1  0
  9 10  1  0
  8 11  1  0
 10 12  1  0
  9 13  2  0
 11 14  1  0
 11 15  2  0
 13 15  1  0
 12 16  1  0
 12 17  2  0
 12 18  1  0
M  END
