
     RDKit          3D

 18 18  0  0  0  0  0  0  0  0999 V2000
  -17.5652   35.9850  -19.5782 O   0  0  0  0  0  0  0  0  0  0  0  0
  -17.7569   36.4783  -20.8179 P   0  0  0  0  0  0  0  0  0  0  0  0
  -18.7451   37.4142  -20.8887 O   0  0  0  0  0  0  0  0  0  0  0  0
  -18.1650   35.3594  -21.9421 O   0  0  0  0  0  0  0  0  0  0  0  0
  -16.3731   37.0146  -21.3492 O   0  0  0  0  0  0  0  0  0  0  0  0
  -18.0699   35.4413  -23.4330 P   0  0  0  0  0  0  0  0  0  0  0  0
  -16.6691   35.5114  -23.6768 O   0  0  0  0  0  0  0  0  0  0  0  0
  -18.7456   36.5712  -24.0695 O   0  0  0  0  0  0  0  0  0  0  0  0
  -15.8881   34.5757  -24.6001 C   0  0  0  0  0  0  0  0  0  0  0  0
  -16.6656   33.4674  -24.6400 C   0  0  0  0  0  0  0  0  0  0  0  0
  -18.4395   34.0162  -23.9250 O   0  0  0  0  0  0  0  0  0  0  0  0
  -17.9228   33.1279  -24.0858 C   0  0  0  0  0  0  0  0  0  0  0  0
  -18.7059   31.9784  -24.7810 C   0  0  0  0  0  0  0  0  0  0  0  0
  -19.5826   32.3928  -25.5982 O   0  0  0  0  0  0  0  0  0  0  0  0
  -19.3530   31.1698  -23.6377 C   0  0  0  0  0  0  0  0  0  0  0  0
  -19.2828   32.6190  -26.9790 C   0  0  0  0  0  0  0  0  0  0  0  0
  -18.7753   30.1458  -23.2897 O   0  0  0  0  0  0  0  0  0  0  0  0
  -15.9424   32.3788  -25.3293 O   0  0  0  0  0  0  0  0  0  0  0  0
  1  2  1  0
  2  3  2  0
  2  4  1  0
  2  5  1  0
  4  6  1  0
  6  7  1  0
  6  8  2  0
  7  9  1  0
  9 10  1  0
  6 11  1  0
 10 12  1  0
 11 12  1  0
 12 13  1  0
 13 14  1  0
 13 15  1  0
 14 16  1  0
 15 17  1  0
 10 18  2  0
M  END
