
     RDKit          3D

 18 18  0  0  0  0  0  0  0  0999 V2000
  -20.7815   33.7161  -21.0409 O   0  0  0  0  0  0  0  0  0  0  0  0
  -19.5668   33.3291  -20.7166 P   0  0  0  0  0  0  0  0  0  0  0  0
  -18.9088   32.9682  -22.0472 O   0  0  0  0  0  0  0  0  0  0  0  0
  -19.6368   32.3626  -19.6392 O   0  0  0  0  0  0  0  0  0  0  0  0
  -18.5613   33.7749  -23.2075 C   0  0  0  0  0  0  0  0  0  0  0  0
  -18.8977   34.5615  -20.2272 O   0  0  0  0  0  0  0  0  0  0  0  0
  -18.7822   33.2724  -24.4966 C   0  0  0  0  0  0  0  0  0  0  0  0
  -18.4418   34.1310  -25.5146 O   0  0  0  0  0  0  0  0  0  0  0  0
  -17.7675   33.5878  -26.6179 C   0  0  0  0  0  0  0  0  0  0  0  0
  -17.9710   31.9430  -24.7552 C   0  0  0  0  0  0  0  0  0  0  0  0
  -17.3179   32.2393  -26.1268 C   0  0  0  0  0  0  0  0  0  0  0  0
  -18.5716   33.4996  -27.8261 C   0  0  0  0  0  0  0  0  0  0  0  0
  -16.7373   34.6397  -26.9938 C   0  0  0  0  0  0  0  0  0  0  0  0
  -18.9408   30.8543  -24.8347 O   0  0  0  0  0  0  0  0  0  0  0  0
  -15.8405   34.1301  -27.9027 O   0  0  0  0  0  0  0  0  0  0  0  0
  -15.9348   32.1529  -25.8579 O   0  0  0  0  0  0  0  0  0  0  0  0
  -16.1292   35.0685  -25.8373 C   0  0  0  0  0  0  0  0  0  0  0  0
  -15.0124   34.5833  -25.4465 O   0  0  0  0  0  0  0  0  0  0  0  0
  1  2  1  0
  2  3  1  0
  2  4  1  0
  3  5  1  0
  2  6  2  0
  5  7  1  0
  7  8  1  0
  8  9  1  0
  7 10  1  0
  9 11  1  0
 10 11  1  0
  9 12  1  0
  9 13  1  0
 10 14  1  0
 13 15  1  0
 11 16  1  0
 13 17  1  0
 17 18  1  0
M  END
