
     RDKit          3D

 19 18  0  0  0  0  0  0  0  0999 V2000
  -14.3493   27.6553  -22.1415 O   0  0  0  0  0  0  0  0  0  0  0  0
  -15.6014   28.1391  -21.8106 C   0  0  0  0  0  0  0  0  0  0  0  0
  -16.5712   27.4933  -21.5715 O   0  0  0  0  0  0  0  0  0  0  0  0
  -15.6424   29.6502  -21.6448 C   0  0  0  0  0  0  0  0  0  0  0  0
  -15.7600   30.3066  -23.0306 C   0  0  0  0  0  0  0  0  0  0  0  0
  -16.4499   31.5022  -23.0793 C   0  0  0  0  0  0  0  0  0  0  0  0
  -17.9115   31.4183  -22.9890 C   0  0  0  0  0  0  0  0  0  0  0  0
  -16.0703   32.0985  -24.4951 C   0  0  0  0  0  0  0  0  0  0  0  0
  -18.4778   30.2966  -22.8692 O   0  0  0  0  0  0  0  0  0  0  0  0
  -18.6521   32.4792  -23.0868 N   0  0  0  0  0  0  0  0  0  0  0  0
  -18.6649   33.4793  -22.0994 C   0  0  0  0  0  0  0  0  0  0  0  0
  -18.4150   34.6868  -22.3377 O   0  0  0  0  0  0  0  0  0  0  0  0
  -19.4054   33.0805  -20.8741 C   0  0  0  0  0  0  0  0  0  0  0  0
  -19.0870   32.5274  -19.9721 O   0  0  0  0  0  0  0  0  0  0  0  0
  -17.5503   35.5542  -22.8528 P   0  0  0  0  0  0  0  0  0  0  0  0
  -20.6142   33.5113  -20.7274 O   0  0  0  0  0  0  0  0  0  0  0  0
  -16.9509   35.1204  -24.0239 O   0  0  0  0  0  0  0  0  0  0  0  0
  -18.3408   36.8672  -23.2436 O   0  0  0  0  0  0  0  0  0  0  0  0
  -16.4363   36.1331  -21.9167 O   0  0  0  0  0  0  0  0  0  0  0  0
  1  2  2  0
  2  3  1  0
  2  4  1  0
  4  5  1  0
  5  6  1  0
  6  7  1  0
  6  8  1  0
  7  9  2  0
  7 10  1  0
 10 11  1  0
 11 12  1  0
 11 13  1  0
 13 14  1  0
 12 15  1  0
 13 16  2  0
 15 17  2  0
 15 18  1  0
 15 19  1  0
M  END
