
     RDKit          3D

  7  6  0  0  0  0  0  0  0  0999 V2000
  -13.1844   27.0297  -22.0105 O   0  0  0  0  0  0  0  0  0  0  0  0
  -12.9778   26.4354  -21.2498 C   0  0  0  0  0  0  0  0  0  0  0  0
  -13.7453   25.5023  -20.6407 N   0  0  0  0  0  0  0  0  0  0  0  0
  -11.5435   26.2104  -20.7599 C   0  0  0  0  0  0  0  0  0  0  0  0
  -15.1460   25.6788  -20.8443 C   0  0  0  0  0  0  0  0  0  0  0  0
  -15.8998   24.6272  -20.6561 N   0  0  0  0  0  0  0  0  0  0  0  0
  -15.5314   26.6203  -21.5459 N   0  0  0  0  0  0  0  0  0  0  0  0
  1  2  2  0
  2  3  1  0
  2  4  1  0
  3  5  1  0
  5  6  1  0
  5  7  2  0
M  END
