
     RDKit          3D

 19 19  0  0  0  0  0  0  0  0999 V2000
  -16.3208   36.4791  -20.3630 O   0  0  0  0  0  0  0  0  0  0  0  0
  -17.6533   36.8110  -20.6212 P   0  0  0  0  0  0  0  0  0  0  0  0
  -18.0451   35.8662  -21.8615 O   0  0  0  0  0  0  0  0  0  0  0  0
  -17.7271   35.9597  -23.3426 P   0  0  0  0  0  0  0  0  0  0  0  0
  -18.0426   34.7049  -23.9737 O   0  0  0  0  0  0  0  0  0  0  0  0
  -16.1975   36.3002  -23.3274 O   0  0  0  0  0  0  0  0  0  0  0  0
  -18.4897   36.1575  -19.4052 O   0  0  0  0  0  0  0  0  0  0  0  0
  -17.2606   34.1270  -25.0309 C   0  0  0  0  0  0  0  0  0  0  0  0
  -17.5838   32.8241  -25.4962 C   0  0  0  0  0  0  0  0  0  0  0  0
  -18.5580   37.0322  -23.9950 O   0  0  0  0  0  0  0  0  0  0  0  0
  -16.1372   34.8169  -25.6544 C   0  0  0  0  0  0  0  0  0  0  0  0
  -15.7292   34.3137  -26.9343 C   0  0  0  0  0  0  0  0  0  0  0  0
  -18.6254   32.0645  -24.6505 C   0  0  0  0  0  0  0  0  0  0  0  0
  -17.1174   32.2851  -26.6297 C   0  0  0  0  0  0  0  0  0  0  0  0
  -16.1342   33.0397  -27.3608 C   0  0  0  0  0  0  0  0  0  0  0  0
  -18.0246   38.1133  -20.9471 O   0  0  0  0  0  0  0  0  0  0  0  0
  -17.9815   31.1712  -23.6550 C   0  0  0  0  0  0  0  0  0  0  0  0
  -18.7190   30.8205  -22.6685 O   0  0  0  0  0  0  0  0  0  0  0  0
  -19.3115   31.1436  -25.5332 O   0  0  0  0  0  0  0  0  0  0  0  0
  1  2  1  0
  2  3  1  0
  3  4  1  0
  4  5  1  0
  4  6  2  0
  2  7  1  0
  5  8  1  0
  8  9  1  0
  4 10  1  0
  8 11  2  0
 11 12  1  0
  9 13  1  0
  9 14  2  0
 12 15  2  0
 14 15  1  0
  2 16  2  0
 13 17  1  0
 17 18  1  0
 13 19  1  0
M  END
