
     RDKit          3D

 19 19  0  0  0  0  0  0  0  0999 V2000
  -16.3208   36.4791  -20.3630 O   0  0  0  0  0  0  0  0  0  0  0  0
  -17.6533   36.8110  -20.6212 P   0  0  0  0  0  0  0  0  0  0  0  0
  -18.0451   35.8662  -21.8615 O   0  0  0  0  0  0  0  0  0  0  0  0
  -17.7271   35.9597  -23.3426 P   0  0  0  0  0  0  0  0  0  0  0  0
  -18.0426   34.7049  -23.9737 O   0  0  0  0  0  0  0  0  0  0  0  0
  -16.1975   36.3002  -23.3274 O   0  0  0  0  0  0  0  0  0  0  0  0
  -18.4897   36.1575  -19.4052 O   0  0  0  0  0  0  0  0  0  0  0  0
  -17.2606   34.1270  -25.0309 C   0  0  0  0  0  0  0  0  0  0  0  0
  -18.6396   37.1640  -23.7382 O   0  0  0  0  0  0  0  0  0  0  0  0
  -17.9768   38.1461  -20.8895 O   0  0  0  0  0  0  0  0  0  0  0  0
  -17.8777   34.1711  -26.2974 C   0  0  0  0  0  0  0  0  0  0  0  0
  -17.2030   34.8248  -27.3058 C   0  0  0  0  0  0  0  0  0  0  0  0
  -18.3019   32.7662  -26.6489 O   0  0  0  0  0  0  0  0  0  0  0  0
  -16.4693   33.9120  -28.1488 C   0  0  0  0  0  0  0  0  0  0  0  0
  -16.8372   32.6935  -24.7828 C   0  0  0  0  0  0  0  0  0  0  0  0
  -16.2499   35.7415  -26.7203 O   0  0  0  0  0  0  0  0  0  0  0  0
  -15.3824   34.5679  -28.7065 O   0  0  0  0  0  0  0  0  0  0  0  0
  -17.6264   31.9544  -25.8177 C   0  0  0  0  0  0  0  0  0  0  0  0
  -15.4789   32.4489  -24.7934 O   0  0  0  0  0  0  0  0  0  0  0  0
  1  2  1  0
  2  3  1  0
  3  4  1  0
  4  5  1  0
  4  6  2  0
  2  7  1  0
  5  8  1  0
  4  9  1  0
  2 10  2  0
  8 11  1  0
 11 12  1  0
 11 13  1  0
 12 14  1  0
  8 15  1  0
 12 16  1  0
 14 17  1  0
 13 18  1  0
 15 18  1  0
 15 19  1  0
M  END
