
     RDKit          3D

 19 19  0  0  0  0  0  0  0  0999 V2000
  -17.5652   35.9850  -19.5782 O   0  0  0  0  0  0  0  0  0  0  0  0
  -17.7569   36.4783  -20.8179 P   0  0  0  0  0  0  0  0  0  0  0  0
  -18.7451   37.4142  -20.8887 O   0  0  0  0  0  0  0  0  0  0  0  0
  -18.1650   35.3594  -21.9421 O   0  0  0  0  0  0  0  0  0  0  0  0
  -16.3731   37.0146  -21.3492 O   0  0  0  0  0  0  0  0  0  0  0  0
  -18.0699   35.4413  -23.4330 P   0  0  0  0  0  0  0  0  0  0  0  0
  -16.6691   35.5114  -23.6768 O   0  0  0  0  0  0  0  0  0  0  0  0
  -18.7456   36.5712  -24.0695 O   0  0  0  0  0  0  0  0  0  0  0  0
  -15.8881   34.5757  -24.6001 C   0  0  0  0  0  0  0  0  0  0  0  0
  -18.4822   34.0926  -24.0204 O   0  0  0  0  0  0  0  0  0  0  0  0
  -17.7505   32.9026  -23.9907 C   0  0  0  0  0  0  0  0  0  0  0  0
  -16.5503   33.2535  -24.8321 C   0  0  0  0  0  0  0  0  0  0  0  0
  -18.3463   31.6996  -23.7525 C   0  0  0  0  0  0  0  0  0  0  0  0
  -18.4139   31.3118  -22.3973 O   0  0  0  0  0  0  0  0  0  0  0  0
  -15.5135   32.2707  -24.6713 O   0  0  0  0  0  0  0  0  0  0  0  0
  -18.4110   32.2385  -21.2058 C   0  0  0  0  0  0  0  0  0  0  0  0
  -19.6838   32.3283  -20.5185 C   0  0  0  0  0  0  0  0  0  0  0  0
  -20.2332   31.4713  -20.1577 O   0  0  0  0  0  0  0  0  0  0  0  0
  -20.0689   33.5960  -20.2748 O   0  0  0  0  0  0  0  0  0  0  0  0
  1  2  1  0
  2  3  2  0
  2  4  1  0
  2  5  1  0
  4  6  1  0
  6  7  1  0
  6  8  2  0
  7  9  1  0
  6 10  1  0
 10 11  1  0
  9 12  1  0
 11 12  1  0
 11 13  1  0
 13 14  1  0
 12 15  1  0
 14 16  1  0
 16 17  1  0
 17 18  2  0
 17 19  1  0
M  END
