
     RDKit          3D

 19 19  0  0  0  0  0  0  0  0999 V2000
  -16.3208   36.4791  -20.3630 O   0  0  0  0  0  0  0  0  0  0  0  0
  -17.4823   36.9298  -21.1315 P   0  0  0  0  0  0  0  0  0  0  0  0
  -17.7405   35.9551  -22.2498 O   0  0  0  0  0  0  0  0  0  0  0  0
  -18.7010   34.8204  -22.3846 P   0  0  0  0  0  0  0  0  0  0  0  0
  -18.0958   33.6590  -22.8259 O   0  0  0  0  0  0  0  0  0  0  0  0
  -18.4994   31.9714  -22.5959 P   0  0  0  0  0  0  0  0  0  0  0  0
  -18.6301   36.9369  -20.1201 O   0  0  0  0  0  0  0  0  0  0  0  0
  -17.1139   38.2278  -21.5725 O   0  0  0  0  0  0  0  0  0  0  0  0
  -19.9265   35.3647  -23.1293 O   0  0  0  0  0  0  0  0  0  0  0  0
  -19.1336   34.4568  -20.8623 O   0  0  0  0  0  0  0  0  0  0  0  0
  -19.8453   33.1426  -20.3574 P   0  0  0  0  0  0  0  0  0  0  0  0
  -19.4033   31.4926  -23.6383 O   0  0  0  0  0  0  0  0  0  0  0  0
  -17.2217   31.1897  -22.3850 O   0  0  0  0  0  0  0  0  0  0  0  0
  -19.6108   32.7295  -19.1405 O   0  0  0  0  0  0  0  0  0  0  0  0
  -19.2551   32.0120  -21.1849 O   0  0  0  0  0  0  0  0  0  0  0  0
  -21.0501   33.3854  -20.6869 O   0  0  0  0  0  0  0  0  0  0  0  0
  -16.6798   30.1071  -23.0679 C   0  0  0  0  0  0  0  0  0  0  0  0
  -15.2383   30.1965  -22.9804 C   0  0  0  0  0  0  0  0  0  0  0  0
  -14.8979   28.7786  -22.3392 O   0  0  0  0  0  0  0  0  0  0  0  0
  1  2  1  0
  2  3  1  0
  3  4  1  0
  4  5  1  0
  5  6  1  0
  2  7  1  0
  2  8  2  0
  4  9  2  0
  4 10  1  0
 10 11  1  0
  6 12  2  0
  6 13  1  0
 11 14  1  0
  6 15  1  0
 11 15  1  0
 11 16  2  0
 13 17  1  0
 17 18  1  0
 18 19  1  0
M  END
