
     RDKit          3D

  7  6  0  0  0  0  0  0  0  0999 V2000
  -13.1844   27.0297  -22.0105 O   0  0  0  0  0  0  0  0  0  0  0  0
  -12.9778   26.4354  -21.2498 C   0  0  0  0  0  0  0  0  0  0  0  0
  -13.7453   25.5023  -20.6407 N   0  0  0  0  0  0  0  0  0  0  0  0
  -11.5435   26.2104  -20.7599 C   0  0  0  0  0  0  0  0  0  0  0  0
  -15.1180   25.7613  -20.7847 C   0  0  0  0  0  0  0  0  0  0  0  0
  -15.9315   24.7967  -20.8231 O   0  0  0  0  0  0  0  0  0  0  0  0
  -15.7131   27.0017  -20.5130 C   0  0  0  0  0  0  0  0  0  0  0  0
  1  2  2  0
  2  3  1  0
  2  4  1  0
  3  5  1  0
  5  6  2  0
  5  7  1  0
M  END
