
     RDKit          3D

 20 19  0  0  0  0  0  0  0  0999 V2000
  -20.8478   33.4248  -20.3065 O   0  0  0  0  0  0  0  0  0  0  0  0
  -19.4409   33.1702  -20.6718 P   0  0  0  0  0  0  0  0  0  0  0  0
  -18.8028   34.3226  -20.8283 O   0  0  0  0  0  0  0  0  0  0  0  0
  -18.9379   32.0517  -19.8356 O   0  0  0  0  0  0  0  0  0  0  0  0
  -19.1917   35.9962  -21.1701 P   0  0  0  0  0  0  0  0  0  0  0  0
  -19.6224   32.5431  -22.1942 O   0  0  0  0  0  0  0  0  0  0  0  0
  -17.7758   36.5228  -21.3313 O   0  0  0  0  0  0  0  0  0  0  0  0
  -17.3168   37.7204  -22.2023 P   0  0  0  0  0  0  0  0  0  0  0  0
  -19.9873   35.9516  -22.3087 O   0  0  0  0  0  0  0  0  0  0  0  0
  -18.4401   32.5144  -23.1411 C   0  0  0  0  0  0  0  0  0  0  0  0
  -16.2467   37.1902  -22.9309 O   0  0  0  0  0  0  0  0  0  0  0  0
  -19.7749   36.6948  -20.0689 O   0  0  0  0  0  0  0  0  0  0  0  0
  -16.8536   38.7320  -21.0986 O   0  0  0  0  0  0  0  0  0  0  0  0
  -18.2232   31.2523  -23.7811 C   0  0  0  0  0  0  0  0  0  0  0  0
  -16.8022   30.8524  -23.5401 C   0  0  0  0  0  0  0  0  0  0  0  0
  -16.6043   29.9021  -22.4633 C   0  0  0  0  0  0  0  0  0  0  0  0
  -15.3550   29.1931  -22.4165 C   0  0  0  0  0  0  0  0  0  0  0  0
  -18.6305   38.0203  -22.8525 O   0  0  0  0  0  0  0  0  0  0  0  0
  -14.3918   29.7240  -22.9749 O   0  0  0  0  0  0  0  0  0  0  0  0
  -15.3361   28.1696  -21.6100 O   0  0  0  0  0  0  0  0  0  0  0  0
  1  2  1  0
  2  3  1  0
  2  4  2  0
  3  5  1  0
  2  6  1  0
  5  7  1  0
  7  8  1  0
  5  9  2  0
  6 10  1  0
  8 11  1  0
  5 12  1  0
  8 13  1  0
 10 14  1  0
 14 15  1  0
 15 16  1  0
 16 17  1  0
  8 18  2  0
 17 19  2  0
 17 20  1  0
M  END
