
     RDKit          3D

 20 20  0  0  0  0  0  0  0  0999 V2000
  -14.3635   27.3093  -22.2965 O   0  0  0  0  0  0  0  0  0  0  0  0
  -15.5291   27.8814  -21.8874 C   0  0  0  0  0  0  0  0  0  0  0  0
  -15.5530   29.3045  -22.1817 N   0  0  0  0  0  0  0  0  0  0  0  0
  -14.6506   30.1020  -22.7992 C   0  0  0  0  0  0  0  0  0  0  0  0
  -15.3788   31.2398  -23.3558 C   0  0  0  0  0  0  0  0  0  0  0  0
  -16.5445   27.3355  -21.3683 N   0  0  0  0  0  0  0  0  0  0  0  0
  -16.8094   31.3466  -23.3270 C   0  0  0  0  0  0  0  0  0  0  0  0
  -17.6342   30.4917  -22.6692 C   0  0  0  0  0  0  0  0  0  0  0  0
  -18.9998   30.7795  -22.6891 C   0  0  0  0  0  0  0  0  0  0  0  0
  -17.0003   29.3438  -21.9910 C   0  0  0  0  0  0  0  0  0  0  0  0
  -17.3478   32.4816  -23.9492 N   0  0  0  0  0  0  0  0  0  0  0  0
  -16.4548   33.4628  -24.6835 C   0  0  0  0  0  0  0  0  0  0  0  0
  -16.5787   33.3822  -26.0341 C   0  0  0  0  0  0  0  0  0  0  0  0
  -16.4437   32.2826  -26.8154 C   0  0  0  0  0  0  0  0  0  0  0  0
  -19.3826   31.6888  -21.5770 O   0  0  0  0  0  0  0  0  0  0  0  0
  -17.0337   34.7860  -26.6391 C   0  0  0  0  0  0  0  0  0  0  0  0
  -18.0874   35.1287  -26.3068 O   0  0  0  0  0  0  0  0  0  0  0  0
  -18.3108   36.2778  -25.5413 C   0  0  0  0  0  0  0  0  0  0  0  0
  -16.3449   35.3478  -27.5475 C   0  0  0  0  0  0  0  0  0  0  0  0
  -16.3100   34.9840  -28.9389 C   0  0  0  0  0  0  0  0  0  0  0  0
  1  2  2  0
  2  3  1  0
  3  4  1  0
  4  5  1  0
  2  6  1  0
  5  7  1  0
  7  8  2  0
  8  9  1  0
  3 10  1  0
  8 10  1  0
  7 11  1  0
 11 12  1  0
 12 13  1  0
 13 14  2  0
  9 15  1  0
 13 16  1  0
 16 17  1  0
 17 18  1  0
 16 19  2  3
 19 20  1  0
M  END
