
     RDKit          3D

 20 20  0  0  0  0  0  0  0  0999 V2000
  -16.3208   36.4791  -20.3630 O   0  0  0  0  0  0  0  0  0  0  0  0
  -17.4823   36.9298  -21.1315 P   0  0  0  0  0  0  0  0  0  0  0  0
  -17.7405   35.9551  -22.2498 O   0  0  0  0  0  0  0  0  0  0  0  0
  -18.7010   34.8204  -22.3846 P   0  0  0  0  0  0  0  0  0  0  0  0
  -18.0958   33.6590  -22.8259 O   0  0  0  0  0  0  0  0  0  0  0  0
  -18.4994   31.9714  -22.5959 P   0  0  0  0  0  0  0  0  0  0  0  0
  -18.6301   36.9369  -20.1201 O   0  0  0  0  0  0  0  0  0  0  0  0
  -17.1139   38.2278  -21.5725 O   0  0  0  0  0  0  0  0  0  0  0  0
  -19.9265   35.3647  -23.1293 O   0  0  0  0  0  0  0  0  0  0  0  0
  -19.1336   34.4568  -20.8623 O   0  0  0  0  0  0  0  0  0  0  0  0
  -19.8453   33.1426  -20.3574 P   0  0  0  0  0  0  0  0  0  0  0  0
  -19.4033   31.4926  -23.6383 O   0  0  0  0  0  0  0  0  0  0  0  0
  -19.5967   32.7129  -19.1493 O   0  0  0  0  0  0  0  0  0  0  0  0
  -17.2127   31.1586  -22.5360 O   0  0  0  0  0  0  0  0  0  0  0  0
  -19.1868   31.9951  -21.2354 O   0  0  0  0  0  0  0  0  0  0  0  0
  -21.1932   33.3662  -20.8437 O   0  0  0  0  0  0  0  0  0  0  0  0
  -16.0955   31.2188  -23.3588 C   0  0  0  0  0  0  0  0  0  0  0  0
  -15.0746   30.2525  -22.8589 C   0  0  0  0  0  0  0  0  0  0  0  0
  -15.7388   29.0321  -22.2116 C   0  0  0  0  0  0  0  0  0  0  0  0
  -14.9458   27.9416  -22.2256 O   0  0  0  0  0  0  0  0  0  0  0  0
  1  2  1  0
  2  3  1  0
  3  4  1  0
  4  5  1  0
  5  6  1  0
  2  7  1  0
  2  8  2  0
  4  9  2  0
  4 10  1  0
 10 11  1  0
  6 12  2  0
 11 13  2  0
  6 14  1  0
  6 15  1  0
 11 15  1  0
 11 16  1  0
 14 17  1  0
 17 18  1  0
 18 19  1  0
 19 20  1  0
M  END
