
     RDKit          3D

 20 19  0  0  0  0  0  0  0  0999 V2000
  -13.0392   27.2160  -22.0785 O   0  0  0  0  0  0  0  0  0  0  0  0
  -14.2372   27.4939  -21.9742 C   0  0  0  0  0  0  0  0  0  0  0  0
  -14.6460   28.7218  -22.6573 C   0  0  0  0  0  0  0  0  0  0  0  0
  -16.1060   28.8560  -22.6540 C   0  0  0  0  0  0  0  0  0  0  0  0
  -16.5080   30.3414  -22.8180 C   0  0  0  0  0  0  0  0  0  0  0  0
  -15.6093   31.1722  -23.3408 O   0  0  0  0  0  0  0  0  0  0  0  0
  -17.7351   30.7116  -22.5104 N   0  0  0  0  0  0  0  0  0  0  0  0
  -18.3348   31.7874  -22.6918 C   0  0  0  0  0  0  0  0  0  0  0  0
  -15.2176   26.9256  -21.4169 O   0  0  0  0  0  0  0  0  0  0  0  0
  -18.9379   32.4081  -21.5135 C   0  0  0  0  0  0  0  0  0  0  0  0
  -18.9980   32.0128  -23.8919 O   0  0  0  0  0  0  0  0  0  0  0  0
  -18.9930   33.6251  -21.2356 O   0  0  0  0  0  0  0  0  0  0  0  0
  -18.1755   32.3216  -25.0413 C   0  0  0  0  0  0  0  0  0  0  0  0
  -17.7093   33.6379  -25.0279 C   0  0  0  0  0  0  0  0  0  0  0  0
  -16.5164   33.8792  -25.5853 C   0  0  0  0  0  0  0  0  0  0  0  0
  -19.7755   31.7199  -20.7599 O   0  0  0  0  0  0  0  0  0  0  0  0
  -15.7226   34.8560  -24.8542 C   0  0  0  0  0  0  0  0  0  0  0  0
  -16.2554   35.7155  -24.2743 O   0  0  0  0  0  0  0  0  0  0  0  0
  -15.7280   32.6611  -25.8858 O   0  0  0  0  0  0  0  0  0  0  0  0
  -14.4954   34.8445  -25.0200 O   0  0  0  0  0  0  0  0  0  0  0  0
  1  2  2  0
  2  3  1  0
  3  4  1  0
  4  5  1  0
  5  6  2  0
  5  7  1  0
  7  8  1  0
  2  9  1  0
  8 10  1  0
  8 11  1  0
 10 12  1  0
 11 13  1  0
 13 14  1  0
 14 15  1  0
 10 16  2  0
 15 17  1  0
 17 18  2  0
 15 19  1  0
 17 20  1  0
M  END
