
     RDKit          3D

  7  7  0  0  0  0  0  0  0  0999 V2000
  -13.3302   34.0354  -34.2022 C   0  0  0  0  0  0  0  0  0  0  0  0
  -13.6672   33.5869  -33.1780 C   0  0  0  0  0  0  0  0  0  0  0  0
  -13.8043   32.7819  -32.0161 C   0  0  0  0  0  0  0  0  0  0  0  0
  -13.0909   32.7344  -31.0394 C   0  0  0  0  0  0  0  0  0  0  0  0
  -14.8302   31.9725  -31.8244 N   0  0  0  0  0  0  0  0  0  0  0  0
  -13.8101   32.0077  -30.0843 C   0  0  0  0  0  0  0  0  0  0  0  0
  -14.9181   31.5155  -30.6797 N   0  0  0  0  0  0  0  0  0  0  0  0
  1  2  3  0
  2  3  1  0
  3  4  1  0
  3  5  2  0
  4  6  2  0
  5  7  1  0
  6  7  1  0
M  END
