
     RDKit          3D

 21 23  0  0  0  0  0  0  0  0999 V2000
  -14.3635   27.3093  -22.2965 O   0  0  0  0  0  0  0  0  0  0  0  0
  -15.5291   27.8814  -21.8874 C   0  0  0  0  0  0  0  0  0  0  0  0
  -15.5530   29.3045  -22.1817 N   0  0  0  0  0  0  0  0  0  0  0  0
  -14.6506   30.1020  -22.7992 C   0  0  0  0  0  0  0  0  0  0  0  0
  -15.3788   31.2398  -23.3558 C   0  0  0  0  0  0  0  0  0  0  0  0
  -16.5445   27.3355  -21.3683 N   0  0  0  0  0  0  0  0  0  0  0  0
  -14.7161   32.0735  -24.2341 N   0  0  0  0  0  0  0  0  0  0  0  0
  -15.4762   33.1163  -24.7236 C   0  0  0  0  0  0  0  0  0  0  0  0
  -16.6961   31.5123  -23.0949 C   0  0  0  0  0  0  0  0  0  0  0  0
  -16.7876   33.3341  -24.4716 N   0  0  0  0  0  0  0  0  0  0  0  0
  -17.4245   32.4634  -23.6194 C   0  0  0  0  0  0  0  0  0  0  0  0
  -18.6783   32.7213  -23.3176 N   0  0  0  0  0  0  0  0  0  0  0  0
  -17.5355   30.4723  -22.3588 C   0  0  0  0  0  0  0  0  0  0  0  0
  -16.8177   29.4767  -21.8367 C   0  0  0  0  0  0  0  0  0  0  0  0
  -19.1790   34.0117  -22.7652 C   0  0  0  0  0  0  0  0  0  0  0  0
  -18.2583   34.8168  -22.1410 O   0  0  0  0  0  0  0  0  0  0  0  0
  -18.7328   35.6582  -20.8751 P   0  0  0  0  0  0  0  0  0  0  0  0
  -20.2857   33.8570  -21.8667 C   0  0  0  0  0  0  0  0  0  0  0  0
  -19.9479   34.3635  -20.6357 O   0  0  0  0  0  0  0  0  0  0  0  0
  -17.8659   35.7757  -19.9523 O   0  0  0  0  0  0  0  0  0  0  0  0
  -19.3865   36.8749  -21.3411 O   0  0  0  0  0  0  0  0  0  0  0  0
  1  2  2  0
  2  3  1  0
  3  4  1  0
  4  5  1  0
  2  6  1  0
  5  7  1  0
  7  8  2  0
  5  9  2  0
  8 10  1  0
  9 11  1  0
 10 11  2  0
 11 12  1  0
  9 13  1  0
  3 14  1  0
 13 14  2  0
 12 15  1  0
 15 16  1  0
 16 17  1  0
 15 18  1  0
 17 19  1  0
 18 19  1  0
 17 20  1  0
 17 21  2  0
M  END
