
     RDKit          3D

 21 20  0  0  0  0  0  0  0  0999 V2000
  -16.6579   36.2371  -19.6971 O   0  0  0  0  0  0  0  0  0  0  0  0
  -17.5636   36.6061  -20.6173 P   0  0  0  0  0  0  0  0  0  0  0  0
  -17.7952   35.4315  -21.5659 O   0  0  0  0  0  0  0  0  0  0  0  0
  -17.8737   35.2800  -22.9871 P   0  0  0  0  0  0  0  0  0  0  0  0
  -18.6590   36.1574  -23.5731 O   0  0  0  0  0  0  0  0  0  0  0  0
  -18.5354   33.8524  -23.2073 O   0  0  0  0  0  0  0  0  0  0  0  0
  -18.9439   36.9400  -19.9686 O   0  0  0  0  0  0  0  0  0  0  0  0
  -16.9819   37.7524  -21.2341 O   0  0  0  0  0  0  0  0  0  0  0  0
  -16.4906   35.3222  -23.6518 O   0  0  0  0  0  0  0  0  0  0  0  0
  -18.7525   32.8706  -22.1230 C   0  0  0  0  0  0  0  0  0  0  0  0
  -18.4337   31.6048  -22.3895 C   0  0  0  0  0  0  0  0  0  0  0  0
  -20.0846   33.1312  -21.4274 C   0  0  0  0  0  0  0  0  0  0  0  0
  -17.1701   31.2123  -22.3968 N   0  0  0  0  0  0  0  0  0  0  0  0
  -16.5265   30.5204  -21.4563 C   0  0  0  0  0  0  0  0  0  0  0  0
  -19.4096   30.8211  -22.5941 O   0  0  0  0  0  0  0  0  0  0  0  0
  -15.4015   29.7009  -21.9587 C   0  0  0  0  0  0  0  0  0  0  0  0
  -20.8513   34.1855  -21.6876 O   0  0  0  0  0  0  0  0  0  0  0  0
  -20.2482   32.6432  -20.2297 O   0  0  0  0  0  0  0  0  0  0  0  0
  -15.6555   28.2259  -21.9105 C   0  0  0  0  0  0  0  0  0  0  0  0
  -16.5733   27.6829  -21.4069 O   0  0  0  0  0  0  0  0  0  0  0  0
  -14.7970   27.6116  -22.8128 O   0  0  0  0  0  0  0  0  0  0  0  0
  1  2  1  0
  2  3  1  0
  3  4  1  0
  4  5  1  0
  4  6  1  0
  2  7  1  0
  2  8  2  0
  4  9  2  0
  6 10  1  0
 10 11  1  0
 10 12  1  0
 11 13  1  0
 13 14  1  0
 11 15  2  0
 14 16  1  0
 12 17  2  0
 12 18  1  0
 16 19  1  0
 19 20  2  0
 19 21  1  0
M  END
