
     RDKit          3D

 21 21  0  0  0  0  0  0  0  0999 V2000
  -13.8270   27.2793  -22.5350 O   0  0  0  0  0  0  0  0  0  0  0  0
  -14.7754   27.3195  -21.6751 C   0  0  0  0  0  0  0  0  0  0  0  0
  -15.1888   26.5924  -20.9189 O   0  0  0  0  0  0  0  0  0  0  0  0
  -15.8461   28.4903  -22.0690 C   0  0  0  0  0  0  0  0  0  0  0  0
  -15.2405   29.7986  -22.4544 C   0  0  0  0  0  0  0  0  0  0  0  0
  -14.1528   29.9970  -22.7299 O   0  0  0  0  0  0  0  0  0  0  0  0
  -16.3090   30.7680  -22.7921 N   0  0  0  0  0  0  0  0  0  0  0  0
  -17.7338   30.7086  -22.3816 C   0  0  0  0  0  0  0  0  0  0  0  0
  -15.8766   31.9231  -23.5790 C   0  0  0  0  0  0  0  0  0  0  0  0
  -15.4348   31.6605  -24.9027 O   0  0  0  0  0  0  0  0  0  0  0  0
  -16.8406   33.0108  -23.7794 C   0  0  0  0  0  0  0  0  0  0  0  0
  -16.3890   34.1584  -24.4672 C   0  0  0  0  0  0  0  0  0  0  0  0
  -18.1601   32.6703  -24.1203 O   0  0  0  0  0  0  0  0  0  0  0  0
  -18.6334   30.4621  -23.4264 C   0  0  0  0  0  0  0  0  0  0  0  0
  -19.0617   31.9504  -23.4485 C   0  0  0  0  0  0  0  0  0  0  0  0
  -19.5464   32.5386  -22.3539 O   0  0  0  0  0  0  0  0  0  0  0  0
  -19.8966   32.5869  -21.0420 P   0  0  0  0  0  0  0  0  0  0  0  0
  -15.7938   35.1262  -23.9931 O   0  0  0  0  0  0  0  0  0  0  0  0
  -20.6471   33.7121  -20.7525 O   0  0  0  0  0  0  0  0  0  0  0  0
  -18.5027   32.8950  -20.2512 O   0  0  0  0  0  0  0  0  0  0  0  0
  -20.3459   31.3200  -20.4712 O   0  0  0  0  0  0  0  0  0  0  0  0
  1  2  2  0
  2  3  1  0
  2  4  1  0
  4  5  1  0
  5  6  2  0
  5  7  1  0
  7  8  1  0
  7  9  1  0
  9 10  1  0
  9 11  1  0
 11 12  1  0
 11 13  1  0
  8 14  1  0
 13 15  1  0
 14 15  1  0
 15 16  1  0
 16 17  1  0
 12 18  1  0
 17 19  1  0
 17 20  1  0
 17 21  2  0
M  END
