
     RDKit          3D

 21 21  0  0  0  0  0  0  0  0999 V2000
  -16.3208   36.4791  -20.3630 O   0  0  0  0  0  0  0  0  0  0  0  0
  -17.4823   36.9298  -21.1315 P   0  0  0  0  0  0  0  0  0  0  0  0
  -17.7405   35.9551  -22.2498 O   0  0  0  0  0  0  0  0  0  0  0  0
  -18.7010   34.8204  -22.3846 P   0  0  0  0  0  0  0  0  0  0  0  0
  -18.0958   33.6590  -22.8259 O   0  0  0  0  0  0  0  0  0  0  0  0
  -18.4994   31.9714  -22.5959 P   0  0  0  0  0  0  0  0  0  0  0  0
  -18.6301   36.9369  -20.1201 O   0  0  0  0  0  0  0  0  0  0  0  0
  -19.8625   35.3254  -23.2835 O   0  0  0  0  0  0  0  0  0  0  0  0
  -19.0669   34.4100  -20.8256 O   0  0  0  0  0  0  0  0  0  0  0  0
  -17.2818   38.3063  -21.6851 O   0  0  0  0  0  0  0  0  0  0  0  0
  -20.0750   33.3937  -20.3563 P   0  0  0  0  0  0  0  0  0  0  0  0
  -19.8818   32.8791  -19.0726 O   0  0  0  0  0  0  0  0  0  0  0  0
  -19.5513   32.1301  -21.4000 O   0  0  0  0  0  0  0  0  0  0  0  0
  -17.2808   31.2290  -22.2047 O   0  0  0  0  0  0  0  0  0  0  0  0
  -19.3178   31.4900  -23.7484 O   0  0  0  0  0  0  0  0  0  0  0  0
  -16.4862   30.4812  -23.0938 C   0  0  0  0  0  0  0  0  0  0  0  0
  -21.3511   33.6374  -20.9460 O   0  0  0  0  0  0  0  0  0  0  0  0
  -15.4939   29.7489  -22.3287 C   0  0  0  0  0  0  0  0  0  0  0  0
  -15.7144   28.2942  -22.3814 C   0  0  0  0  0  0  0  0  0  0  0  0
  -16.7152   27.7463  -21.8847 O   0  0  0  0  0  0  0  0  0  0  0  0
  -14.6241   27.5590  -22.5645 O   0  0  0  0  0  0  0  0  0  0  0  0
  1  2  1  0
  2  3  1  0
  3  4  1  0
  4  5  1  0
  5  6  1  0
  2  7  1  0
  4  8  2  0
  4  9  1  0
  2 10  2  0
  9 11  1  0
 11 12  2  0
  6 13  1  0
 11 13  1  0
  6 14  1  0
  6 15  2  0
 14 16  1  0
 11 17  1  0
 16 18  1  0
 18 19  1  0
 19 20  1  0
 19 21  2  0
M  END
