
     RDKit          3D

  5  4  0  0  0  0  0  0  0  0999 V2000
  -12.7331   26.8231  -21.3384 C   0  0  0  0  0  0  0  0  0  0  0  0
  -13.8693   27.0786  -21.7415 N   0  0  0  0  0  0  0  0  0  0  0  0
  -11.5690   26.3458  -20.9219 C   0  0  0  0  0  0  0  0  0  0  0  0
  -11.4357   25.1086  -20.7003 C   0  0  0  0  0  0  0  0  0  0  0  0
  -10.0715   24.8062  -20.2421 C   0  0  0  0  0  0  0  0  0  0  0  0
  1  2  3  0
  1  3  1  0
  3  4  1  0
  4  5  2  0
M  END
