
     RDKit          3D

 21 22  0  0  0  0  0  0  0  0999 V2000
  -21.4848   34.1844  -20.9359 O   0  0  0  0  0  0  0  0  0  0  0  0
  -20.2894   34.3720  -21.4691 C   0  0  0  0  0  0  0  0  0  0  0  0
  -19.2149   33.4817  -20.9452 C   0  0  0  0  0  0  0  0  0  0  0  0
  -19.8525   35.6754  -21.7519 O   0  0  0  0  0  0  0  0  0  0  0  0
  -19.4152   36.0964  -23.0451 C   0  0  0  0  0  0  0  0  0  0  0  0
  -18.9021   37.3605  -23.0672 C   0  0  0  0  0  0  0  0  0  0  0  0
  -19.0461   33.6401  -19.6514 O   0  0  0  0  0  0  0  0  0  0  0  0
  -20.5209   36.0643  -23.8811 O   0  0  0  0  0  0  0  0  0  0  0  0
  -20.8357   37.3689  -24.4066 C   0  0  0  0  0  0  0  0  0  0  0  0
  -18.5722   32.6152  -21.5942 O   0  0  0  0  0  0  0  0  0  0  0  0
  -21.2757   37.3814  -25.7810 C   0  0  0  0  0  0  0  0  0  0  0  0
  -17.4129   37.4755  -23.0014 O   0  0  0  0  0  0  0  0  0  0  0  0
  -20.3651   37.8172  -26.6916 O   0  0  0  0  0  0  0  0  0  0  0  0
  -19.3803   38.0303  -24.2729 C   0  0  0  0  0  0  0  0  0  0  0  0
  -20.7563   39.0576  -27.5058 C   0  0  0  0  0  0  0  0  0  0  0  0
  -18.5405   37.8836  -25.3533 O   0  0  0  0  0  0  0  0  0  0  0  0
  -21.5186   39.0131  -28.4849 C   0  0  0  0  0  0  0  0  0  0  0  0
  -20.2004   40.2130  -27.0030 C   0  0  0  0  0  0  0  0  0  0  0  0
  -21.9003   40.1185  -29.2011 C   0  0  0  0  0  0  0  0  0  0  0  0
  -21.4217   41.3508  -28.7321 C   0  0  0  0  0  0  0  0  0  0  0  0
  -20.5355   41.4014  -27.6403 C   0  0  0  0  0  0  0  0  0  0  0  0
  1  2  1  0
  2  3  1  0
  2  4  1  0
  4  5  1  0
  5  6  1  0
  3  7  1  0
  5  8  1  0
  8  9  1  0
  3 10  2  0
  9 11  1  0
  6 12  1  0
 11 13  1  0
  6 14  1  0
  9 14  1  0
 13 15  1  0
 14 16  1  0
 15 17  2  0
 15 18  1  0
 17 19  1  0
 19 20  2  0
 18 21  2  0
 20 21  1  0
M  END
