
     RDKit          3D

 21 21  0  0  0  0  0  0  0  0999 V2000
  -14.3756   27.6594  -22.5211 O   0  0  0  0  0  0  0  0  0  0  0  0
  -15.5022   28.3929  -22.1595 C   0  0  0  0  0  0  0  0  0  0  0  0
  -15.4269   29.7819  -22.3140 C   0  0  0  0  0  0  0  0  0  0  0  0
  -16.6001   30.4038  -23.0658 C   0  0  0  0  0  0  0  0  0  0  0  0
  -16.4119   31.7577  -23.5835 C   0  0  0  0  0  0  0  0  0  0  0  0
  -17.6450   32.6391  -23.5388 N   0  0  0  0  0  0  0  0  0  0  0  0
  -17.6691   33.8388  -24.1441 C   0  0  0  0  0  0  0  0  0  0  0  0
  -16.5579   27.8376  -21.9405 O   0  0  0  0  0  0  0  0  0  0  0  0
  -18.9226   32.0479  -23.3010 C   0  0  0  0  0  0  0  0  0  0  0  0
  -19.3330   30.8510  -23.5113 O   0  0  0  0  0  0  0  0  0  0  0  0
  -19.8115   32.9525  -22.6042 C   0  0  0  0  0  0  0  0  0  0  0  0
  -19.3973   34.1339  -22.2559 O   0  0  0  0  0  0  0  0  0  0  0  0
  -18.5814   34.8640  -23.3106 C   0  0  0  0  0  0  0  0  0  0  0  0
  -20.3724   32.2925  -21.2268 O   0  0  0  0  0  0  0  0  0  0  0  0
  -17.6967   35.9165  -22.7225 C   0  0  0  0  0  0  0  0  0  0  0  0
  -17.1629   34.2423  -25.2249 O   0  0  0  0  0  0  0  0  0  0  0  0
  -19.7516   32.7774  -19.8824 P   0  0  0  0  0  0  0  0  0  0  0  0
  -18.2005   36.6277  -21.8922 O   0  0  0  0  0  0  0  0  0  0  0  0
  -19.5453   31.6878  -19.0961 O   0  0  0  0  0  0  0  0  0  0  0  0
  -20.9500   33.6367  -19.4301 O   0  0  0  0  0  0  0  0  0  0  0  0
  -18.5217   33.6840  -20.3111 O   0  0  0  0  0  0  0  0  0  0  0  0
  1  2  2  0
  2  3  1  0
  3  4  1  0
  4  5  1  0
  5  6  1  0
  6  7  1  0
  2  8  1  0
  6  9  1  0
  9 10  2  0
  9 11  1  0
 11 12  1  0
  7 13  1  0
 12 13  1  0
 11 14  1  0
 13 15  1  0
  7 16  2  0
 14 17  1  0
 15 18  1  0
 17 19  1  0
 17 20  2  0
 17 21  1  0
M  END
