
     RDKit          3D

 21 20  0  0  0  0  0  0  0  0999 V2000
  -13.9286   27.6285  -22.4975 O   0  0  0  0  0  0  0  0  0  0  0  0
  -15.3314   28.0447  -22.1866 C   0  0  0  0  0  0  0  0  0  0  0  0
  -16.1950   27.3041  -21.9811 N   0  0  0  0  0  0  0  0  0  0  0  0
  -15.4720   29.5580  -21.8866 C   0  0  0  0  0  0  0  0  0  0  0  0
  -15.6891   30.3892  -23.2213 C   0  0  0  0  0  0  0  0  0  0  0  0
  -14.6234   30.9057  -23.6847 O   0  0  0  0  0  0  0  0  0  0  0  0
  -16.9311   30.7744  -23.4656 N   0  0  0  0  0  0  0  0  0  0  0  0
  -18.1414   30.3721  -22.7826 C   0  0  0  0  0  0  0  0  0  0  0  0
  -17.1521   31.9753  -24.3303 C   0  0  0  0  0  0  0  0  0  0  0  0
  -18.3041   32.6473  -24.2166 C   0  0  0  0  0  0  0  0  0  0  0  0
  -18.1349   33.9786  -23.6068 C   0  0  0  0  0  0  0  0  0  0  0  0
  -18.8152   34.3704  -22.4863 C   0  0  0  0  0  0  0  0  0  0  0  0
  -17.8163   35.0392  -24.5124 C   0  0  0  0  0  0  0  0  0  0  0  0
  -19.3270   33.5320  -21.5416 C   0  0  0  0  0  0  0  0  0  0  0  0
  -18.8996   35.7785  -22.1575 O   0  0  0  0  0  0  0  0  0  0  0  0
  -17.7154   34.7298  -25.8678 N   0  0  0  0  0  0  0  0  0  0  0  0
  -18.7265   32.6359  -20.8449 O   0  0  0  0  0  0  0  0  0  0  0  0
  -16.5880   35.1881  -26.7110 C   0  0  0  0  0  0  0  0  0  0  0  0
  -16.1946   36.2726  -26.5381 O   0  0  0  0  0  0  0  0  0  0  0  0
  -20.5930   33.7547  -21.2465 O   0  0  0  0  0  0  0  0  0  0  0  0
  -16.3851   34.4226  -27.9540 C   0  0  0  0  0  0  0  0  0  0  0  0
  1  2  2  0
  2  3  1  0
  2  4  1  0
  4  5  1  0
  5  6  2  0
  5  7  1  0
  7  8  1  0
  7  9  1  0
  9 10  1  0
 10 11  1  0
 11 12  1  0
 11 13  1  0
 12 14  1  0
 12 15  1  0
 13 16  1  0
 14 17  1  0
 16 18  1  0
 18 19  2  0
 14 20  2  0
 18 21  1  0
M  END
