
     RDKit          3D

 21 21  0  0  0  0  0  0  0  0999 V2000
  -21.0360   33.4111  -20.4038 O   0  0  0  0  0  0  0  0  0  0  0  0
  -19.6943   33.3874  -20.9457 P   0  0  0  0  0  0  0  0  0  0  0  0
  -19.3261   34.5555  -21.5107 O   0  0  0  0  0  0  0  0  0  0  0  0
  -19.5236   32.2074  -21.9789 O   0  0  0  0  0  0  0  0  0  0  0  0
  -18.6904   32.9385  -19.8067 O   0  0  0  0  0  0  0  0  0  0  0  0
  -18.8995   31.0762  -21.9645 C   0  0  0  0  0  0  0  0  0  0  0  0
  -18.6546   35.8773  -21.3687 P   0  0  0  0  0  0  0  0  0  0  0  0
  -18.0490   30.9213  -23.1185 C   0  0  0  0  0  0  0  0  0  0  0  0
  -16.7324   30.6422  -22.7733 N   0  0  0  0  0  0  0  0  0  0  0  0
  -15.7389   31.4547  -23.2402 C   0  0  0  0  0  0  0  0  0  0  0  0
  -16.2121   29.4318  -22.3646 C   0  0  0  0  0  0  0  0  0  0  0  0
  -16.8272   28.4760  -21.7963 O   0  0  0  0  0  0  0  0  0  0  0  0
  -14.8018   29.4293  -22.3273 O   0  0  0  0  0  0  0  0  0  0  0  0
  -16.2988   32.6563  -24.0188 C   0  0  0  0  0  0  0  0  0  0  0  0
  -15.5671   33.4640  -24.7880 N   0  0  0  0  0  0  0  0  0  0  0  0
  -15.5659   34.8508  -24.5091 C   0  0  0  0  0  0  0  0  0  0  0  0
  -17.6408   32.9960  -23.6532 C   0  0  0  0  0  0  0  0  0  0  0  0
  -18.6013   31.9786  -23.8865 C   0  0  0  0  0  0  0  0  0  0  0  0
  -17.4309   35.6212  -20.6073 O   0  0  0  0  0  0  0  0  0  0  0  0
  -18.2445   36.3425  -22.7649 O   0  0  0  0  0  0  0  0  0  0  0  0
  -19.5770   36.7685  -20.5600 O   0  0  0  0  0  0  0  0  0  0  0  0
  1  2  1  0
  2  3  1  0
  2  4  1  0
  2  5  2  0
  4  6  1  0
  3  7  1  0
  6  8  1  0
  8  9  1  0
  9 10  1  0
  9 11  1  0
 11 12  2  0
 11 13  1  0
 10 14  1  0
 14 15  1  0
 15 16  1  0
 14 17  2  0
  8 18  1  0
 17 18  1  0
  7 19  1  0
  7 20  2  0
  7 21  1  0
M  END
