
     RDKit          3D

 21 20  0  0  0  0  0  0  0  0999 V2000
  -13.9122   27.5043  -22.6589 O   0  0  0  0  0  0  0  0  0  0  0  0
  -15.3129   27.6911  -22.1238 C   0  0  0  0  0  0  0  0  0  0  0  0
  -16.1009   26.9505  -21.8536 N   0  0  0  0  0  0  0  0  0  0  0  0
  -15.6388   29.2510  -22.2786 C   0  0  0  0  0  0  0  0  0  0  0  0
  -14.7983   30.1905  -22.7429 C   0  0  0  0  0  0  0  0  0  0  0  0
  -13.6659   29.9908  -23.3160 O   0  0  0  0  0  0  0  0  0  0  0  0
  -15.3825   31.5841  -22.8015 C   0  0  0  0  0  0  0  0  0  0  0  0
  -16.7644   31.7237  -22.9634 C   0  0  0  0  0  0  0  0  0  0  0  0
  -17.1825   32.7219  -23.6974 N   0  0  0  0  0  0  0  0  0  0  0  0
  -17.0727   32.8624  -25.0186 C   0  0  0  0  0  0  0  0  0  0  0  0
  -18.5825   33.1596  -23.2497 C   0  0  0  0  0  0  0  0  0  0  0  0
  -18.5575   34.5292  -22.9458 C   0  0  0  0  0  0  0  0  0  0  0  0
  -16.4074   34.0921  -25.5132 C   0  0  0  0  0  0  0  0  0  0  0  0
  -19.4177   32.2231  -22.8885 O   0  0  0  0  0  0  0  0  0  0  0  0
  -16.4740   34.3647  -26.9468 C   0  0  0  0  0  0  0  0  0  0  0  0
  -17.7726   35.2107  -22.4678 O   0  0  0  0  0  0  0  0  0  0  0  0
  -20.0804   34.9351  -22.5161 C   0  0  0  0  0  0  0  0  0  0  0  0
  -20.2826   36.3707  -22.7915 C   0  0  0  0  0  0  0  0  0  0  0  0
  -15.9576   35.4077  -27.4982 C   0  0  0  0  0  0  0  0  0  0  0  0
  -20.7242   37.1138  -21.9899 O   0  0  0  0  0  0  0  0  0  0  0  0
  -20.0643   34.7099  -21.0496 O   0  0  0  0  0  0  0  0  0  0  0  0
  1  2  2  0
  2  3  1  0
  2  4  1  0
  4  5  2  3
  5  6  1  0
  5  7  1  0
  7  8  1  0
  8  9  1  0
  9 10  1  0
  9 11  1  0
 11 12  1  0
 10 13  1  0
 11 14  2  0
 13 15  2  3
 12 16  1  0
 12 17  1  0
 17 18  1  0
 15 19  1  0
 18 20  1  0
 17 21  1  0
M  END
