
     RDKit          3D

 21 21  0  0  0  0  0  0  0  0999 V2000
  -20.9725   33.4920  -20.6001 O   0  0  0  0  0  0  0  0  0  0  0  0
  -19.6199   33.3403  -20.7789 P   0  0  0  0  0  0  0  0  0  0  0  0
  -18.9725   34.5095  -20.8228 O   0  0  0  0  0  0  0  0  0  0  0  0
  -19.3784   32.4672  -22.0930 O   0  0  0  0  0  0  0  0  0  0  0  0
  -18.9669   32.4011  -19.6970 O   0  0  0  0  0  0  0  0  0  0  0  0
  -18.3563   35.3316  -21.9912 P   0  0  0  0  0  0  0  0  0  0  0  0
  -17.5411   36.3848  -21.4907 O   0  0  0  0  0  0  0  0  0  0  0  0
  -17.6218   34.4210  -22.8566 O   0  0  0  0  0  0  0  0  0  0  0  0
  -19.7043   35.8467  -22.6441 O   0  0  0  0  0  0  0  0  0  0  0  0
  -16.6540   34.9783  -23.9855 P   0  0  0  0  0  0  0  0  0  0  0  0
  -18.9672   31.0255  -22.2871 C   0  0  0  0  0  0  0  0  0  0  0  0
  -15.4717   35.1179  -23.5832 O   0  0  0  0  0  0  0  0  0  0  0  0
  -17.7396   30.9116  -22.8558 C   0  0  0  0  0  0  0  0  0  0  0  0
  -17.2964   36.2130  -24.5591 O   0  0  0  0  0  0  0  0  0  0  0  0
  -16.9305   33.8984  -25.2033 O   0  0  0  0  0  0  0  0  0  0  0  0
  -17.4814   31.4594  -24.0169 C   0  0  0  0  0  0  0  0  0  0  0  0
  -16.4813   32.4357  -24.4923 C   0  0  0  0  0  0  0  0  0  0  0  0
  -16.8300   29.8384  -22.8843 O   0  0  0  0  0  0  0  0  0  0  0  0
  -15.6154   29.8151  -22.1638 C   0  0  0  0  0  0  0  0  0  0  0  0
  -18.5040   31.4131  -25.0223 O   0  0  0  0  0  0  0  0  0  0  0  0
  -15.3214   28.6790  -21.5809 O   0  0  0  0  0  0  0  0  0  0  0  0
  1  2  1  0
  2  3  1  0
  2  4  1  0
  2  5  2  0
  3  6  1  0
  6  7  2  0
  6  8  1  0
  6  9  1  0
  8 10  1  0
  4 11  1  0
 10 12  1  0
 11 13  1  0
 10 14  2  0
 10 15  1  0
 13 16  1  0
 15 17  1  0
 16 17  1  0
 13 18  1  0
 18 19  1  0
 16 20  1  0
 19 21  1  0
M  END
