
     RDKit          3D

 21 20  0  0  0  0  0  0  0  0999 V2000
  -14.3756   27.6594  -22.5211 O   0  0  0  0  0  0  0  0  0  0  0  0
  -15.5022   28.3929  -22.1595 C   0  0  0  0  0  0  0  0  0  0  0  0
  -15.4269   29.7819  -22.3140 C   0  0  0  0  0  0  0  0  0  0  0  0
  -16.6001   30.4038  -23.0658 C   0  0  0  0  0  0  0  0  0  0  0  0
  -16.4119   31.7577  -23.5835 C   0  0  0  0  0  0  0  0  0  0  0  0
  -17.6450   32.6391  -23.5388 N   0  0  0  0  0  0  0  0  0  0  0  0
  -17.6691   33.8388  -24.1441 C   0  0  0  0  0  0  0  0  0  0  0  0
  -16.5579   27.8376  -21.9405 O   0  0  0  0  0  0  0  0  0  0  0  0
  -16.7419   34.4290  -24.8094 C   0  0  0  0  0  0  0  0  0  0  0  0
  -16.1833   35.4676  -24.4678 O   0  0  0  0  0  0  0  0  0  0  0  0
  -18.9076   32.0064  -23.3678 C   0  0  0  0  0  0  0  0  0  0  0  0
  -19.0238   34.1092  -24.8304 O   0  0  0  0  0  0  0  0  0  0  0  0
  -16.0034   33.7077  -25.8369 O   0  0  0  0  0  0  0  0  0  0  0  0
  -19.3455   35.4489  -25.2071 C   0  0  0  0  0  0  0  0  0  0  0  0
  -19.2660   32.2000  -21.8552 C   0  0  0  0  0  0  0  0  0  0  0  0
  -19.7301   31.2565  -21.1609 O   0  0  0  0  0  0  0  0  0  0  0  0
  -19.5161   33.3904  -21.3594 O   0  0  0  0  0  0  0  0  0  0  0  0
  -19.3848   34.0774  -19.9684 P   0  0  0  0  0  0  0  0  0  0  0  0
  -18.6397   33.1404  -19.2278 O   0  0  0  0  0  0  0  0  0  0  0  0
  -18.6508   35.4430  -20.1860 O   0  0  0  0  0  0  0  0  0  0  0  0
  -20.7237   34.0439  -19.5615 O   0  0  0  0  0  0  0  0  0  0  0  0
  1  2  2  0
  2  3  1  0
  3  4  1  0
  4  5  1  0
  5  6  1  0
  6  7  1  0
  2  8  1  0
  7  9  1  0
  9 10  2  0
  6 11  1  0
  7 12  1  0
  9 13  1  0
 12 14  1  0
 11 15  1  0
 15 16  2  0
 15 17  1  0
 17 18  1  0
 18 19  1  0
 18 20  1  0
 18 21  2  0
M  END
