
     RDKit          3D

  6  5  0  0  0  0  0  0  0  0999 V2000
  -13.4462   34.8413  -33.7379 C   0  0  0  0  0  0  0  0  0  0  0  0
  -12.8811   33.7794  -33.6132 O   0  0  0  0  0  0  0  0  0  0  0  0
  -13.0650   33.1988  -32.3201 C   0  0  0  0  0  0  0  0  0  0  0  0
  -12.0854   33.4268  -31.4697 C   0  0  0  0  0  0  0  0  0  0  0  0
  -11.3222   34.4996  -31.5150 O   0  0  0  0  0  0  0  0  0  0  0  0
  -10.7571   34.9768  -30.2952 C   0  0  0  0  0  0  0  0  0  0  0  0
  1  2  1  0
  2  3  1  0
  3  4  1  0
  4  5  1  0
  5  6  1  0
M  END
