
     RDKit          3D

  6  6  0  0  0  0  0  0  0  0999 V2000
  -11.1333   35.0178  -29.1201 C   0  0  0  0  0  0  0  0  0  0  0  0
  -10.9568   35.2740  -30.2712 C   0  0  0  0  0  0  0  0  0  0  0  0
  -10.9464   33.8936  -28.6025 C   0  0  0  0  0  0  0  0  0  0  0  0
  -10.7136   32.8584  -29.4005 C   0  0  0  0  0  0  0  0  0  0  0  0
  -10.6715   33.0395  -30.7143 C   0  0  0  0  0  0  0  0  0  0  0  0
  -10.9090   34.2285  -31.2502 C   0  0  0  0  0  0  0  0  0  0  0  0
  1  2  1  0
  1  3  2  0
  3  4  1  0
  4  5  2  0
  2  6  2  0
  5  6  1  0
M  END
