
     RDKit          3D

  7  6  0  0  0  0  0  0  0  0999 V2000
  -11.0479   34.9457  -29.6279 C   0  0  0  0  0  0  0  0  0  0  0  0
  -11.0344   35.1340  -30.7419 C   0  0  0  0  0  0  0  0  0  0  0  0
  -10.8385   35.1485  -28.7972 C   0  0  0  0  0  0  0  0  0  0  0  0
  -12.1615   34.1427  -31.3844 C   0  0  0  0  0  0  0  0  0  0  0  0
  -12.7117   34.1892  -32.6834 C   0  0  0  0  0  0  0  0  0  0  0  0
  -13.6243   33.5366  -33.0377 O   0  0  0  0  0  0  0  0  0  0  0  0
  -12.4161   35.2352  -33.3909 O   0  0  0  0  0  0  0  0  0  0  0  0
  1  2  1  0
  1  3  3  0
  2  4  1  0
  4  5  1  0
  5  6  2  0
  5  7  1  0
M  END
