
     RDKit          3D

  7  7  0  0  0  0  0  0  0  0999 V2000
  -11.0479   34.9457  -29.6279 C   0  0  0  0  0  0  0  0  0  0  0  0
  -11.0344   35.1340  -30.7419 C   0  0  0  0  0  0  0  0  0  0  0  0
  -11.0436   33.8430  -29.0309 C   0  0  0  0  0  0  0  0  0  0  0  0
  -10.9109   36.1084  -28.8678 C   0  0  0  0  0  0  0  0  0  0  0  0
  -11.5215   37.0282  -28.9663 C   0  0  0  0  0  0  0  0  0  0  0  0
  -11.8451   36.2334  -31.0811 C   0  0  0  0  0  0  0  0  0  0  0  0
  -11.7111   37.3053  -30.4586 C   0  0  0  0  0  0  0  0  0  0  0  0
  1  2  1  0
  1  3  1  0
  1  4  1  0
  4  5  1  0
  2  6  1  0
  5  7  1  0
  6  7  1  0
M  END
