
     RDKit          3D

  7  7  0  0  0  0  0  0  0  0999 V2000
  -12.7331   26.8231  -21.3384 C   0  0  0  0  0  0  0  0  0  0  0  0
  -13.8693   27.0786  -21.7415 N   0  0  0  0  0  0  0  0  0  0  0  0
  -11.6239   26.1842  -20.8988 C   0  0  0  0  0  0  0  0  0  0  0  0
  -10.7026   26.8571  -20.3896 C   0  0  0  0  0  0  0  0  0  0  0  0
   -9.5748   26.0704  -20.2165 C   0  0  0  0  0  0  0  0  0  0  0  0
  -11.4563   25.0560  -21.0745 N   0  0  0  0  0  0  0  0  0  0  0  0
  -10.1654   24.5735  -20.7140 C   0  0  0  0  0  0  0  0  0  0  0  0
  1  2  3  0
  1  3  1  0
  3  4  1  0
  4  5  2  0
  3  6  2  0
  5  7  1  0
  6  7  1  0
M  END
