
     RDKit          3D

  3  2  0  0  0  0  0  0  0  0999 V2000
  -11.8682   26.3476  -21.5886 O   0  0  0  0  0  0  0  0  0  0  0  0
  -11.2688   25.7802  -20.4562 C   0  0  0  0  0  0  0  0  0  0  0  0
  -10.3001   24.9909  -20.6505 N   0  0  0  0  0  0  0  0  0  0  0  0
  1  2  2  0
  2  3  1  0
M  END
