
     RDKit          3D

  8  7  0  0  0  0  0  0  0  0999 V2000
  -13.0931   27.3466  -22.0379 C   0  0  0  0  0  0  0  0  0  0  0  0
  -12.7933   26.5426  -21.1309 C   0  0  0  0  0  0  0  0  0  0  0  0
  -11.5182   26.5182  -20.7433 C   0  0  0  0  0  0  0  0  0  0  0  0
  -11.0207   26.9834  -19.7689 O   0  0  0  0  0  0  0  0  0  0  0  0
  -14.5999   27.7511  -22.1901 C   0  0  0  0  0  0  0  0  0  0  0  0
  -15.4826   27.1554  -21.6131 O   0  0  0  0  0  0  0  0  0  0  0  0
  -14.8923   28.7690  -23.1072 O   0  0  0  0  0  0  0  0  0  0  0  0
  -10.9318   25.4647  -21.3499 O   0  0  0  0  0  0  0  0  0  0  0  0
  1  2  1  0
  2  3  1  0
  3  4  1  0
  1  5  1  0
  5  6  2  0
  5  7  1  0
  3  8  2  0
M  END
