
     RDKit          3D

  9  8  0  0  0  0  0  0  0  0999 V2000
  -12.6749   27.0754  -21.7479 C   0  0  0  0  0  0  0  0  0  0  0  0
  -12.2382   26.4830  -20.8284 C   0  0  0  0  0  0  0  0  0  0  0  0
  -11.6009   25.4747  -19.9070 C   0  0  0  0  0  0  0  0  0  0  0  0
  -13.4164   27.7442  -22.5810 C   0  0  0  0  0  0  0  0  0  0  0  0
  -14.7756   27.3361  -22.5789 C   0  0  0  0  0  0  0  0  0  0  0  0
  -10.2358   25.9210  -19.8078 C   0  0  0  0  0  0  0  0  0  0  0  0
  -15.7442   28.4502  -22.1709 C   0  0  0  0  0  0  0  0  0  0  0  0
  -16.8421   28.3454  -22.0536 O   0  0  0  0  0  0  0  0  0  0  0  0
  -15.1633   29.6163  -21.7435 N   0  0  0  0  0  0  0  0  0  0  0  0
  1  2  3  0
  2  3  1  0
  1  4  1  0
  4  5  1  0
  3  6  1  0
  5  7  1  0
  7  8  2  0
  7  9  1  0
M  END
