
     RDKit          3D

  9  8  0  0  0  0  0  0  0  0999 V2000
  -12.5238   26.8138  -22.1886 C   0  0  0  0  0  0  0  0  0  0  0  0
  -13.7787   26.7898  -21.9987 C   0  0  0  0  0  0  0  0  0  0  0  0
  -11.7984   26.3395  -21.0051 C   0  0  0  0  0  0  0  0  0  0  0  0
  -14.5305   27.8689  -22.6160 C   0  0  0  0  0  0  0  0  0  0  0  0
  -12.1231   25.1283  -20.7853 O   0  0  0  0  0  0  0  0  0  0  0  0
  -15.6527   28.3441  -21.8710 C   0  0  0  0  0  0  0  0  0  0  0  0
  -16.6911   27.6819  -21.5842 O   0  0  0  0  0  0  0  0  0  0  0  0
  -10.5231   26.7801  -20.7578 O   0  0  0  0  0  0  0  0  0  0  0  0
  -15.5498   29.6149  -21.4228 O   0  0  0  0  0  0  0  0  0  0  0  0
  1  2  1  0
  1  3  1  0
  2  4  1  0
  3  5  2  0
  4  6  1  0
  6  7  2  0
  3  8  1  0
  6  9  1  0
M  END
