
     RDKit          3D

 10 10  0  0  0  0  0  0  0  0999 V2000
  -13.2303   27.0584  -22.1118 O   0  0  0  0  0  0  0  0  0  0  0  0
  -14.4789   27.0715  -21.5879 C   0  0  0  0  0  0  0  0  0  0  0  0
  -15.1310   26.4619  -20.9518 O   0  0  0  0  0  0  0  0  0  0  0  0
  -12.3483   25.8883  -21.5729 C   0  0  0  0  0  0  0  0  0  0  0  0
  -15.1244   28.4772  -22.0327 C   0  0  0  0  0  0  0  0  0  0  0  0
  -16.4377   28.6361  -21.8269 C   0  0  0  0  0  0  0  0  0  0  0  0
  -14.4925   29.6987  -22.1611 C   0  0  0  0  0  0  0  0  0  0  0  0
  -17.3315   27.4130  -21.8322 C   0  0  0  0  0  0  0  0  0  0  0  0
  -15.2572   30.7698  -22.3219 C   0  0  0  0  0  0  0  0  0  0  0  0
  -16.8721   29.9709  -22.1987 S   0  0  0  0  0  0  0  0  0  0  0  0
  1  2  1  0
  2  3  2  0
  1  4  1  0
  2  5  1  0
  5  6  2  0
  5  7  1  0
  6  8  1  0
  7  9  2  0
  6 10  1  0
  9 10  1  0
M  END
