
     RDKit          3D

 10 10  0  0  0  0  0  0  0  0999 V2000
  -13.6967   27.3305  -22.4177 O   0  0  0  0  0  0  0  0  0  0  0  0
  -14.7225   27.1908  -21.7260 C   0  0  0  0  0  0  0  0  0  0  0  0
  -15.2124   26.4100  -21.0927 O   0  0  0  0  0  0  0  0  0  0  0  0
  -15.6466   28.5098  -21.9215 C   0  0  0  0  0  0  0  0  0  0  0  0
  -16.8586   28.4376  -22.0466 C   0  0  0  0  0  0  0  0  0  0  0  0
  -15.1536   29.8445  -21.6162 C   0  0  0  0  0  0  0  0  0  0  0  0
  -17.4527   29.7581  -22.2247 C   0  0  0  0  0  0  0  0  0  0  0  0
  -16.4349   30.5910  -21.8907 N   0  0  0  0  0  0  0  0  0  0  0  0
  -18.7524   30.1006  -22.5385 C   0  0  0  0  0  0  0  0  0  0  0  0
  -18.6468   30.9214  -23.7950 N   0  0  0  0  0  0  0  0  0  0  0  0
  1  2  2  0
  2  3  1  0
  2  4  1  0
  4  5  2  0
  4  6  1  0
  5  7  1  0
  6  8  1  0
  7  8  2  0
  7  9  1  0
  9 10  1  0
M  END
