
     RDKit          3D

  4  3  0  0  0  0  0  0  0  0999 V2000
  -12.5238   26.8138  -22.1886 O   0  0  0  0  0  0  0  0  0  0  0  0
  -11.8795   26.5269  -21.4455 C   0  0  0  0  0  0  0  0  0  0  0  0
  -11.6275   25.3943  -20.8222 O   0  0  0  0  0  0  0  0  0  0  0  0
  -10.6526   27.3802  -21.0936 C   0  0  0  0  0  0  0  0  0  0  0  0
  1  2  2  0
  2  3  1  0
  2  4  1  0
M  END
