
     RDKit          3D

 10  9  0  0  0  0  0  0  0  0999 V2000
  -14.3136   27.6004  -23.6552 C   0  0  0  0  0  0  0  0  0  0  0  0
  -15.3558   28.1434  -22.7629 C   0  0  0  0  0  0  0  0  0  0  0  0
  -13.3984   27.4402  -23.1875 O   0  0  0  0  0  0  0  0  0  0  0  0
  -15.3097   29.5844  -22.4872 C   0  0  0  0  0  0  0  0  0  0  0  0
  -14.6121   30.2534  -23.2227 O   0  0  0  0  0  0  0  0  0  0  0  0
  -14.8000   27.4538  -24.8153 N   0  0  0  0  0  0  0  0  0  0  0  0
  -16.1796   30.0983  -21.6565 O   0  0  0  0  0  0  0  0  0  0  0  0
  -15.1478   27.3858  -21.4748 C   0  0  0  0  0  0  0  0  0  0  0  0
  -16.7945   27.7452  -23.0740 C   0  0  0  0  0  0  0  0  0  0  0  0
  -14.7278   26.2531  -25.3464 C   0  0  0  0  0  0  0  0  0  0  0  0
  1  2  1  0
  1  3  2  0
  2  4  1  0
  4  5  2  0
  1  6  1  0
  4  7  1  0
  2  8  1  0
  2  9  1  0
  6 10  1  0
M  END
