
     RDKit          3D

 11 11  0  0  0  0  0  0  0  0999 V2000
  -11.0479   34.9457  -29.6279 C   0  0  0  0  0  0  0  0  0  0  0  0
  -11.0344   35.1340  -30.7419 C   0  0  0  0  0  0  0  0  0  0  0  0
  -11.0436   33.8430  -29.0309 C   0  0  0  0  0  0  0  0  0  0  0  0
  -10.9109   36.1084  -28.8678 C   0  0  0  0  0  0  0  0  0  0  0  0
  -11.9155   34.0617  -31.4629 C   0  0  0  0  0  0  0  0  0  0  0  0
  -12.9125   34.1878  -32.0305 C   0  0  0  0  0  0  0  0  0  0  0  0
  -11.6224   36.0709  -27.6771 C   0  0  0  0  0  0  0  0  0  0  0  0
  -11.5462   34.9982  -26.8587 C   0  0  0  0  0  0  0  0  0  0  0  0
  -12.0075   34.8710  -25.8278 C   0  0  0  0  0  0  0  0  0  0  0  0
  -11.5871   33.9612  -27.7971 C   0  0  0  0  0  0  0  0  0  0  0  0
  -12.7860   34.2649  -33.3373 C   0  0  0  0  0  0  0  0  0  0  0  0
  1  2  1  0
  1  3  1  0
  1  4  1  0
  2  5  1  0
  5  6  1  0
  4  7  1  0
  7  8  1  0
  8  9  1  0
  3 10  1  0
  8 10  1  0
  6 11  1  0
M  END
