
     RDKit          3D

 11 11  0  0  0  0  0  0  0  0999 V2000
  -12.7082   26.9670  -21.7073 C   0  0  0  0  0  0  0  0  0  0  0  0
  -12.4665   26.3089  -20.7886 C   0  0  0  0  0  0  0  0  0  0  0  0
  -12.2004   25.2409  -19.8270 C   0  0  0  0  0  0  0  0  0  0  0  0
  -13.3540   27.7231  -22.5714 C   0  0  0  0  0  0  0  0  0  0  0  0
  -14.7410   28.1385  -21.9712 C   0  0  0  0  0  0  0  0  0  0  0  0
  -15.6603   27.3181  -21.6411 C   0  0  0  0  0  0  0  0  0  0  0  0
  -10.8164   24.8806  -20.0251 C   0  0  0  0  0  0  0  0  0  0  0  0
  -16.8658   27.6156  -21.6085 C   0  0  0  0  0  0  0  0  0  0  0  0
  -15.0092   29.4847  -21.6961 C   0  0  0  0  0  0  0  0  0  0  0  0
  -16.2779   29.9140  -21.5689 C   0  0  0  0  0  0  0  0  0  0  0  0
  -17.2395   28.8941  -21.4685 C   0  0  0  0  0  0  0  0  0  0  0  0
  1  2  3  0
  2  3  1  0
  1  4  1  0
  4  5  1  0
  5  6  2  0
  3  7  1  0
  6  8  1  0
  5  9  1  0
  9 10  2  0
  8 11  2  0
 10 11  1  0
M  END
