
     RDKit          3D

 12 11  0  0  0  0  0  0  0  0999 V2000
  -21.7416   34.3124  -21.1024 O   0  0  0  0  0  0  0  0  0  0  0  0
  -20.5795   34.6307  -21.6310 C   0  0  0  0  0  0  0  0  0  0  0  0
  -19.3414   33.9319  -21.1963 C   0  0  0  0  0  0  0  0  0  0  0  0
  -20.4782   34.9157  -23.0089 O   0  0  0  0  0  0  0  0  0  0  0  0
  -20.2310   36.3646  -23.5168 C   0  0  0  0  0  0  0  0  0  0  0  0
  -19.4758   32.6146  -20.8248 C   0  0  0  0  0  0  0  0  0  0  0  0
  -19.6011   36.3668  -24.7679 C   0  0  0  0  0  0  0  0  0  0  0  0
  -18.6978   34.7689  -20.1211 O   0  0  0  0  0  0  0  0  0  0  0  0
  -19.7082   32.1765  -19.6463 O   0  0  0  0  0  0  0  0  0  0  0  0
  -19.9155   31.6641  -21.6830 O   0  0  0  0  0  0  0  0  0  0  0  0
  -18.7347   37.3060  -25.0684 O   0  0  0  0  0  0  0  0  0  0  0  0
  -18.3149   37.3678  -26.2968 C   0  0  0  0  0  0  0  0  0  0  0  0
  1  2  1  0
  2  3  1  0
  2  4  1  0
  4  5  1  0
  3  6  1  0
  5  7  1  0
  3  8  1  0
  6  9  1  0
  6 10  2  0
  7 11  1  0
 11 12  1  0
M  END
