
     RDKit          3D

 12 11  0  0  0  0  0  0  0  0999 V2000
  -12.7331   26.8231  -21.3384 C   0  0  0  0  0  0  0  0  0  0  0  0
  -13.8693   27.0786  -21.7415 C   0  0  0  0  0  0  0  0  0  0  0  0
  -11.5646   26.3023  -20.7730 C   0  0  0  0  0  0  0  0  0  0  0  0
  -15.0687   27.6376  -22.2722 C   0  0  0  0  0  0  0  0  0  0  0  0
  -11.4626   25.0495  -20.8933 O   0  0  0  0  0  0  0  0  0  0  0  0
  -15.1622   29.0931  -22.2877 C   0  0  0  0  0  0  0  0  0  0  0  0
  -14.2799   29.9048  -22.6656 C   0  0  0  0  0  0  0  0  0  0  0  0
  -13.1531   29.5833  -23.1291 O   0  0  0  0  0  0  0  0  0  0  0  0
  -10.6244   27.1470  -20.3937 C   0  0  0  0  0  0  0  0  0  0  0  0
  -14.5813   31.3261  -22.4660 C   0  0  0  0  0  0  0  0  0  0  0  0
  -13.6944   32.0769  -23.1829 O   0  0  0  0  0  0  0  0  0  0  0  0
  -15.3142   31.6458  -21.5477 O   0  0  0  0  0  0  0  0  0  0  0  0
  1  2  3  0
  1  3  1  0
  2  4  1  0
  3  5  2  0
  4  6  1  0
  6  7  2  3
  7  8  1  0
  3  9  1  0
  7 10  1  0
 10 11  2  0
 10 12  1  0
M  END
