
     RDKit          3D

 13 13  0  0  0  0  0  0  0  0999 V2000
  -11.1333   35.0178  -29.1201 C   0  0  0  0  0  0  0  0  0  0  0  0
  -10.9568   35.2740  -30.2712 C   0  0  0  0  0  0  0  0  0  0  0  0
  -11.1137   36.0893  -28.1701 C   0  0  0  0  0  0  0  0  0  0  0  0
  -11.0588   34.3289  -31.1695 C   0  0  0  0  0  0  0  0  0  0  0  0
  -12.3446   34.0581  -31.7537 C   0  0  0  0  0  0  0  0  0  0  0  0
  -12.6108   34.1426  -33.0415 C   0  0  0  0  0  0  0  0  0  0  0  0
  -13.4016   33.6667  -30.9527 C   0  0  0  0  0  0  0  0  0  0  0  0
  -13.9021   34.0360  -33.4685 C   0  0  0  0  0  0  0  0  0  0  0  0
  -10.8678   37.3499  -28.5526 F   0  0  0  0  0  0  0  0  0  0  0  0
  -14.1617   34.2665  -34.7918 C   0  0  0  0  0  0  0  0  0  0  0  0
  -14.8624   33.6889  -32.5520 C   0  0  0  0  0  0  0  0  0  0  0  0
  -14.6011   33.5207  -31.3053 C   0  0  0  0  0  0  0  0  0  0  0  0
  -11.8311   35.9383  -26.8236 C   0  0  0  0  0  0  0  0  0  0  0  0
  1  2  1  0
  1  3  2  3
  2  4  2  3
  4  5  1  0
  5  6  1  0
  5  7  2  0
  6  8  2  0
  3  9  1  0
  8 10  1  0
  8 11  1  0
  7 12  1  0
 11 12  2  0
  3 13  1  0
M  END
