
     RDKit          3D

 14 13  0  0  0  0  0  0  0  0999 V2000
  -19.1726   34.4821  -19.8441 O   0  0  0  0  0  0  0  0  0  0  0  0
  -19.3740   33.3617  -20.4439 P   0  0  0  0  0  0  0  0  0  0  0  0
  -18.4681   32.9629  -21.5208 O   0  0  0  0  0  0  0  0  0  0  0  0
  -18.3319   31.5302  -22.2262 C   0  0  0  0  0  0  0  0  0  0  0  0
  -17.3296   31.6237  -23.2665 C   0  0  0  0  0  0  0  0  0  0  0  0
  -20.7692   33.7289  -21.2084 O   0  0  0  0  0  0  0  0  0  0  0  0
  -19.6293   31.2038  -22.8286 C   0  0  0  0  0  0  0  0  0  0  0  0
  -19.5678   32.1233  -19.5716 O   0  0  0  0  0  0  0  0  0  0  0  0
  -16.3077   30.7571  -23.0175 O   0  0  0  0  0  0  0  0  0  0  0  0
  -17.4978   32.2636  -24.3754 O   0  0  0  0  0  0  0  0  0  0  0  0
  -16.1896   29.8122  -21.8761 C   0  0  0  0  0  0  0  0  0  0  0  0
  -16.0177   28.4647  -22.1843 C   0  0  0  0  0  0  0  0  0  0  0  0
  -14.8281   28.0262  -22.4412 O   0  0  0  0  0  0  0  0  0  0  0  0
  -16.9666   27.7658  -22.2327 O   0  0  0  0  0  0  0  0  0  0  0  0
  1  2  1  0
  2  3  1  0
  3  4  1  0
  4  5  1  0
  2  6  2  0
  4  7  1  0
  2  8  1  0
  5  9  1  0
  5 10  2  0
  9 11  1  0
 11 12  1  0
 12 13  2  0
 12 14  1  0
M  END
