
     RDKit          3D

 15 14  0  0  0  0  0  0  0  0999 V2000
  -20.9725   33.4920  -20.6001 O   0  0  0  0  0  0  0  0  0  0  0  0
  -19.6590   33.2417  -20.9881 P   0  0  0  0  0  0  0  0  0  0  0  0
  -19.0569   34.3066  -21.4505 O   0  0  0  0  0  0  0  0  0  0  0  0
  -19.6984   32.2579  -22.2980 O   0  0  0  0  0  0  0  0  0  0  0  0
  -18.7281   31.3459  -22.6770 C   0  0  0  0  0  0  0  0  0  0  0  0
  -18.7929   32.3505  -20.0038 O   0  0  0  0  0  0  0  0  0  0  0  0
  -18.1468   31.5726  -23.8902 C   0  0  0  0  0  0  0  0  0  0  0  0
  -18.3941   35.7028  -20.6955 P   0  0  0  0  0  0  0  0  0  0  0  0
  -16.7125   31.7424  -23.9244 O   0  0  0  0  0  0  0  0  0  0  0  0
  -15.7875   30.7622  -23.4563 C   0  0  0  0  0  0  0  0  0  0  0  0
  -17.9018   35.3921  -19.5037 O   0  0  0  0  0  0  0  0  0  0  0  0
  -16.3139   29.8990  -22.4885 C   0  0  0  0  0  0  0  0  0  0  0  0
  -15.2522   28.8518  -22.1133 O   0  0  0  0  0  0  0  0  0  0  0  0
  -17.3336   36.2654  -21.7382 O   0  0  0  0  0  0  0  0  0  0  0  0
  -19.4677   36.8287  -20.6213 O   0  0  0  0  0  0  0  0  0  0  0  0
  1  2  1  0
  2  3  1  0
  2  4  1  0
  4  5  1  0
  2  6  2  0
  5  7  1  0
  3  8  1  0
  7  9  1  0
  9 10  1  0
  8 11  1  0
 10 12  1  0
 12 13  1  0
  8 14  2  0
  8 15  1  0
M  END
