
     RDKit          3D

 15 17  0  0  0  0  0  0  0  0999 V2000
  -12.5238   26.8138  -22.1886 C   0  0  0  0  0  0  0  0  0  0  0  0
  -13.7787   26.7898  -21.9987 C   0  0  0  0  0  0  0  0  0  0  0  0
  -14.5452   26.3344  -21.1614 C   0  0  0  0  0  0  0  0  0  0  0  0
  -14.5778   27.6476  -23.0568 C   0  0  0  0  0  0  0  0  0  0  0  0
  -15.6027   28.4252  -22.3594 C   0  0  0  0  0  0  0  0  0  0  0  0
  -11.8227   26.1045  -21.1565 C   0  0  0  0  0  0  0  0  0  0  0  0
  -12.5623   25.2277  -20.4330 C   0  0  0  0  0  0  0  0  0  0  0  0
  -15.9580   26.4789  -21.0324 C   0  0  0  0  0  0  0  0  0  0  0  0
  -12.1267   24.4694  -19.7025 C   0  0  0  0  0  0  0  0  0  0  0  0
  -13.9804   25.6280  -20.1269 C   0  0  0  0  0  0  0  0  0  0  0  0
  -16.5829   27.5081  -21.7576 C   0  0  0  0  0  0  0  0  0  0  0  0
  -16.0997   29.4247  -23.1116 C   0  0  0  0  0  0  0  0  0  0  0  0
  -14.8972   29.1057  -21.4728 N   0  0  0  0  0  0  0  0  0  0  0  0
  -15.4344   30.5376  -23.2589 C   0  0  0  0  0  0  0  0  0  0  0  0
  -15.0530   30.3722  -21.7851 N   0  0  0  0  0  0  0  0  0  0  0  0
  1  2  2  0
  2  3  1  0
  2  4  1  0
  4  5  1  0
  1  6  1  0
  6  7  1  0
  3  8  2  0
  7  9  2  0
  3 10  1  0
  7 10  1  0
  5 11  1  0
  8 11  1  0
  5 12  1  0
  5 13  1  0
 12 14  1  0
 13 15  2  0
 14 15  1  0
M  END
