
     RDKit          3D

 15 15  0  0  0  0  0  0  0  0999 V2000
  -21.4848   34.1844  -20.9359 O   0  0  0  0  0  0  0  0  0  0  0  0
  -20.2894   34.3720  -21.4691 C   0  0  0  0  0  0  0  0  0  0  0  0
  -19.2149   33.4817  -20.9452 C   0  0  0  0  0  0  0  0  0  0  0  0
  -19.8525   35.6754  -21.7519 O   0  0  0  0  0  0  0  0  0  0  0  0
  -19.4152   36.0964  -23.0451 C   0  0  0  0  0  0  0  0  0  0  0  0
  -18.9021   37.3605  -23.0672 C   0  0  0  0  0  0  0  0  0  0  0  0
  -19.0461   33.6401  -19.6514 O   0  0  0  0  0  0  0  0  0  0  0  0
  -20.5209   36.0643  -23.8811 O   0  0  0  0  0  0  0  0  0  0  0  0
  -20.8357   37.3689  -24.4066 C   0  0  0  0  0  0  0  0  0  0  0  0
  -18.5722   32.6152  -21.5942 O   0  0  0  0  0  0  0  0  0  0  0  0
  -19.5623   38.1281  -24.1374 C   0  0  0  0  0  0  0  0  0  0  0  0
  -18.8239   38.5937  -25.1840 O   0  0  0  0  0  0  0  0  0  0  0  0
  -22.0984   37.8033  -23.9634 C   0  0  0  0  0  0  0  0  0  0  0  0
  -17.3831   37.3624  -23.2479 O   0  0  0  0  0  0  0  0  0  0  0  0
  -22.6115   38.5316  -24.8143 O   0  0  0  0  0  0  0  0  0  0  0  0
  1  2  1  0
  2  3  1  0
  2  4  1  0
  4  5  1  0
  5  6  1  0
  3  7  1  0
  5  8  1  0
  8  9  1  0
  3 10  2  0
  6 11  1  0
  9 11  1  0
 11 12  1  0
  9 13  1  0
  6 14  1  0
 13 15  1  0
M  END
