
     RDKit          3D

 15 15  0  0  0  0  0  0  0  0999 V2000
  -12.7082   26.9670  -21.7073 C   0  0  0  0  0  0  0  0  0  0  0  0
  -12.4665   26.3089  -20.7886 C   0  0  0  0  0  0  0  0  0  0  0  0
  -12.9088   27.7387  -22.7725 C   0  0  0  0  0  0  0  0  0  0  0  0
  -11.5768   25.4634  -20.0180 C   0  0  0  0  0  0  0  0  0  0  0  0
  -10.3430   25.8524  -19.9365 C   0  0  0  0  0  0  0  0  0  0  0  0
  -14.3854   28.1355  -22.5061 C   0  0  0  0  0  0  0  0  0  0  0  0
  -15.3895   27.3191  -22.2877 C   0  0  0  0  0  0  0  0  0  0  0  0
  -14.7047   29.5804  -22.1990 C   0  0  0  0  0  0  0  0  0  0  0  0
  -13.8715   30.5791  -22.5408 C   0  0  0  0  0  0  0  0  0  0  0  0
  -15.3645   25.9441  -22.5708 C   0  0  0  0  0  0  0  0  0  0  0  0
  -15.8428   29.7682  -21.4469 C   0  0  0  0  0  0  0  0  0  0  0  0
  -16.1841   31.0937  -21.2155 C   0  0  0  0  0  0  0  0  0  0  0  0
  -14.2500   31.8597  -22.3890 C   0  0  0  0  0  0  0  0  0  0  0  0
   -9.4339   24.8984  -20.1298 C   0  0  0  0  0  0  0  0  0  0  0  0
  -15.3846   32.0799  -21.6866 C   0  0  0  0  0  0  0  0  0  0  0  0
  1  2  3  0
  1  3  1  0
  2  4  1  0
  4  5  1  0
  3  6  1  0
  6  7  2  3
  6  8  1  0
  8  9  2  0
  7 10  1  0
  8 11  1  0
 11 12  2  0
  9 13  1  0
  5 14  1  0
 12 15  1  0
 13 15  2  0
M  END
