
     RDKit          3D

 15 14  0  0  0  0  0  0  0  0999 V2000
  -20.9855   33.8248  -21.2417 O   0  0  0  0  0  0  0  0  0  0  0  0
  -19.7359   33.2849  -20.8931 P   0  0  0  0  0  0  0  0  0  0  0  0
  -19.0856   32.6446  -22.1075 O   0  0  0  0  0  0  0  0  0  0  0  0
  -18.6162   34.3091  -20.4929 O   0  0  0  0  0  0  0  0  0  0  0  0
  -19.7831   32.2235  -19.7730 O   0  0  0  0  0  0  0  0  0  0  0  0
  -18.6310   35.8685  -20.8255 P   0  0  0  0  0  0  0  0  0  0  0  0
  -18.5411   31.1681  -22.2953 C   0  0  0  0  0  0  0  0  0  0  0  0
  -17.6423   31.2819  -23.4244 C   0  0  0  0  0  0  0  0  0  0  0  0
  -18.6695   36.6557  -19.7525 O   0  0  0  0  0  0  0  0  0  0  0  0
  -19.7643   36.0311  -21.8184 O   0  0  0  0  0  0  0  0  0  0  0  0
  -17.2422   36.0371  -21.6114 O   0  0  0  0  0  0  0  0  0  0  0  0
  -16.3974   30.7008  -23.1507 O   0  0  0  0  0  0  0  0  0  0  0  0
  -16.1093   29.5002  -22.4844 C   0  0  0  0  0  0  0  0  0  0  0  0
  -16.9200   28.8194  -21.9187 O   0  0  0  0  0  0  0  0  0  0  0  0
  -14.7385   29.3321  -22.1064 O   0  0  0  0  0  0  0  0  0  0  0  0
  1  2  1  0
  2  3  1  0
  2  4  1  0
  2  5  2  0
  4  6  1  0
  3  7  1  0
  7  8  1  0
  6  9  1  0
  6 10  1  0
  6 11  2  0
  8 12  1  0
 12 13  1  0
 13 14  2  0
 13 15  1  0
M  END
