
     RDKit          3D

 16 15  0  0  0  0  0  0  0  0999 V2000
  -14.2243   27.6705  -22.0318 O   0  0  0  0  0  0  0  0  0  0  0  0
  -15.5362   27.9716  -21.7899 C   0  0  0  0  0  0  0  0  0  0  0  0
  -15.8188   29.3906  -22.0883 N   0  0  0  0  0  0  0  0  0  0  0  0
  -17.0879   29.8973  -22.1437 C   0  0  0  0  0  0  0  0  0  0  0  0
  -17.0526   31.2193  -22.8080 C   0  0  0  0  0  0  0  0  0  0  0  0
  -16.4557   27.2749  -21.2351 N   0  0  0  0  0  0  0  0  0  0  0  0
  -18.3358   31.9045  -22.8598 C   0  0  0  0  0  0  0  0  0  0  0  0
  -18.1441   33.1995  -22.4838 N   0  0  0  0  0  0  0  0  0  0  0  0
  -19.2124   33.9916  -21.6989 P   0  0  0  0  0  0  0  0  0  0  0  0
  -19.9665   33.1507  -20.7474 O   0  0  0  0  0  0  0  0  0  0  0  0
  -18.3563   35.0837  -20.7896 O   0  0  0  0  0  0  0  0  0  0  0  0
  -20.2295   34.7606  -22.4868 O   0  0  0  0  0  0  0  0  0  0  0  0
  -19.4857   32.1185  -19.6558 P   0  0  0  0  0  0  0  0  0  0  0  0
  -19.9253   30.7549  -20.0231 O   0  0  0  0  0  0  0  0  0  0  0  0
  -17.9784   32.2711  -19.7223 O   0  0  0  0  0  0  0  0  0  0  0  0
  -20.1898   32.6005  -18.3970 O   0  0  0  0  0  0  0  0  0  0  0  0
  1  2  2  0
  2  3  1  0
  3  4  1  0
  4  5  1  0
  2  6  1  0
  5  7  1  0
  7  8  1  0
  8  9  1  0
  9 10  1  0
  9 11  1  0
  9 12  2  0
 10 13  1  0
 13 14  1  0
 13 15  2  0
 13 16  1  0
M  END
