
     RDKit          3D

  4  3  0  0  0  0  0  0  0  0999 V2000
  -11.8682   26.3476  -21.5886 O   0  0  0  0  0  0  0  0  0  0  0  0
  -10.9137   26.0543  -20.9365 C   0  0  0  0  0  0  0  0  0  0  0  0
  -10.0022   26.8096  -20.5929 O   0  0  0  0  0  0  0  0  0  0  0  0
  -10.4869   24.6397  -20.9304 O   0  0  0  0  0  0  0  0  0  0  0  0
  1  2  2  0
  2  3  1  0
  2  4  1  0
M  END
