
     RDKit          3D

 16 16  0  0  0  0  0  0  0  0999 V2000
  -13.9286   27.6285  -22.4975 O   0  0  0  0  0  0  0  0  0  0  0  0
  -15.3314   28.0447  -22.1866 C   0  0  0  0  0  0  0  0  0  0  0  0
  -15.5435   29.4193  -22.2349 C   0  0  0  0  0  0  0  0  0  0  0  0
  -16.0672   27.2534  -21.6070 O   0  0  0  0  0  0  0  0  0  0  0  0
  -16.8378   29.8197  -22.5377 C   0  0  0  0  0  0  0  0  0  0  0  0
  -17.1426   31.1914  -22.8951 C   0  0  0  0  0  0  0  0  0  0  0  0
  -18.5417   31.6066  -22.8159 C   0  0  0  0  0  0  0  0  0  0  0  0
  -16.2778   31.8158  -23.7274 C   0  0  0  0  0  0  0  0  0  0  0  0
  -16.6750   33.1210  -24.2737 C   0  0  0  0  0  0  0  0  0  0  0  0
  -15.7522   33.8783  -25.0483 N   0  0  0  0  0  0  0  0  0  0  0  0
  -15.4338   35.0845  -24.8293 C   0  0  0  0  0  0  0  0  0  0  0  0
  -18.7934   32.8975  -23.1967 C   0  0  0  0  0  0  0  0  0  0  0  0
  -17.9095   33.7423  -23.8400 C   0  0  0  0  0  0  0  0  0  0  0  0
  -19.4270   30.8354  -22.0715 O   0  0  0  0  0  0  0  0  0  0  0  0
  -15.0834   35.7132  -25.9854 O   0  0  0  0  0  0  0  0  0  0  0  0
  -15.9250   35.8149  -23.8999 O   0  0  0  0  0  0  0  0  0  0  0  0
  1  2  2  0
  2  3  1  0
  2  4  1  0
  3  5  1  0
  5  6  1  0
  6  7  1  0
  6  8  2  0
  8  9  1  0
  9 10  1  0
 10 11  1  0
  7 12  2  0
  9 13  2  0
 12 13  1  0
  7 14  1  0
 11 15  2  0
 11 16  1  0
M  END
