
     RDKit          3D

 16 15  0  0  0  0  0  0  0  0999 V2000
  -13.9286   27.6285  -22.4975 O   0  0  0  0  0  0  0  0  0  0  0  0
  -15.3314   28.0447  -22.1866 C   0  0  0  0  0  0  0  0  0  0  0  0
  -16.1950   27.3041  -21.9811 N   0  0  0  0  0  0  0  0  0  0  0  0
  -15.4720   29.5580  -21.8866 C   0  0  0  0  0  0  0  0  0  0  0  0
  -16.2441   26.0307  -22.2392 C   0  0  0  0  0  0  0  0  0  0  0  0
  -16.8074   30.0029  -22.3788 C   0  0  0  0  0  0  0  0  0  0  0  0
  -17.8670   29.3959  -22.4207 O   0  0  0  0  0  0  0  0  0  0  0  0
  -16.8261   31.3662  -22.6840 N   0  0  0  0  0  0  0  0  0  0  0  0
  -18.0673   32.0352  -23.2894 C   0  0  0  0  0  0  0  0  0  0  0  0
  -18.3662   33.1566  -22.5837 C   0  0  0  0  0  0  0  0  0  0  0  0
  -17.9101   32.3808  -24.7930 C   0  0  0  0  0  0  0  0  0  0  0  0
  -19.4053   33.1193  -21.4940 C   0  0  0  0  0  0  0  0  0  0  0  0
  -20.1122   33.9636  -21.0907 O   0  0  0  0  0  0  0  0  0  0  0  0
  -19.3419   31.9075  -20.7248 O   0  0  0  0  0  0  0  0  0  0  0  0
  -18.5080   31.7219  -25.6143 O   0  0  0  0  0  0  0  0  0  0  0  0
  -16.8893   33.1597  -25.1345 O   0  0  0  0  0  0  0  0  0  0  0  0
  1  2  2  0
  2  3  1  0
  2  4  1  0
  3  5  1  0
  4  6  1  0
  6  7  2  0
  6  8  1  0
  8  9  1  0
  9 10  1  0
  9 11  1  0
 10 12  1  0
 12 13  2  0
 12 14  1  0
 11 15  1  0
 11 16  2  0
M  END
