
     RDKit          3D

 16 15  0  0  0  0  0  0  0  0999 V2000
  -14.3136   27.6004  -23.6552 O   0  0  0  0  0  0  0  0  0  0  0  0
  -15.3063   28.0206  -22.4493 C   0  0  0  0  0  0  0  0  0  0  0  0
  -15.8996   27.2764  -21.7498 O   0  0  0  0  0  0  0  0  0  0  0  0
  -15.1882   29.4651  -22.2397 N   0  0  0  0  0  0  0  0  0  0  0  0
  -16.3113   30.1792  -22.0857 C   0  0  0  0  0  0  0  0  0  0  0  0
  -17.3540   30.0905  -23.0464 C   0  0  0  0  0  0  0  0  0  0  0  0
  -17.3179   31.3550  -23.9373 C   0  0  0  0  0  0  0  0  0  0  0  0
  -18.4098   32.2273  -23.8770 N   0  0  0  0  0  0  0  0  0  0  0  0
  -18.6408   33.0803  -22.8128 C   0  0  0  0  0  0  0  0  0  0  0  0
  -19.3335   32.9064  -21.6327 C   0  0  0  0  0  0  0  0  0  0  0  0
  -19.2902   31.7566  -20.8717 O   0  0  0  0  0  0  0  0  0  0  0  0
  -20.4619   33.6036  -21.3690 O   0  0  0  0  0  0  0  0  0  0  0  0
  -19.4081   32.1171  -24.9594 C   0  0  0  0  0  0  0  0  0  0  0  0
  -17.8952   34.2233  -22.8772 O   0  0  0  0  0  0  0  0  0  0  0  0
  -19.1176   31.1373  -25.9515 N   0  0  0  0  0  0  0  0  0  0  0  0
  -19.8259   33.2195  -25.4375 O   0  0  0  0  0  0  0  0  0  0  0  0
  1  2  1  0
  2  3  2  0
  2  4  1  0
  4  5  1  0
  5  6  1  0
  6  7  1  0
  7  8  1  0
  8  9  1  0
  9 10  1  0
 10 11  1  0
 10 12  2  0
  8 13  1  0
  9 14  2  0
 13 15  1  0
 13 16  2  0
M  END
