
     RDKit          3D

 17 16  0  0  0  0  0  0  0  0999 V2000
  -20.9725   33.4920  -20.6001 O   0  0  0  0  0  0  0  0  0  0  0  0
  -19.6590   33.2417  -20.9881 P   0  0  0  0  0  0  0  0  0  0  0  0
  -19.0569   34.3066  -21.4505 O   0  0  0  0  0  0  0  0  0  0  0  0
  -19.6984   32.2579  -22.2980 O   0  0  0  0  0  0  0  0  0  0  0  0
  -18.7281   31.3459  -22.6770 C   0  0  0  0  0  0  0  0  0  0  0  0
  -18.7929   32.3505  -20.0038 O   0  0  0  0  0  0  0  0  0  0  0  0
  -18.1468   31.5726  -23.8902 C   0  0  0  0  0  0  0  0  0  0  0  0
  -18.3941   35.7028  -20.6955 P   0  0  0  0  0  0  0  0  0  0  0  0
  -16.7125   31.7424  -23.9244 O   0  0  0  0  0  0  0  0  0  0  0  0
  -15.7875   30.7622  -23.4563 C   0  0  0  0  0  0  0  0  0  0  0  0
  -17.9018   35.3921  -19.5037 O   0  0  0  0  0  0  0  0  0  0  0  0
  -19.4690   36.7065  -20.7390 O   0  0  0  0  0  0  0  0  0  0  0  0
  -17.2530   36.0363  -21.7788 O   0  0  0  0  0  0  0  0  0  0  0  0
  -18.5979   32.9011  -24.5689 C   0  0  0  0  0  0  0  0  0  0  0  0
  -16.1960   29.8655  -22.4786 C   0  0  0  0  0  0  0  0  0  0  0  0
  -19.3045   32.7502  -25.6670 O   0  0  0  0  0  0  0  0  0  0  0  0
  -15.2430   28.8015  -22.2203 O   0  0  0  0  0  0  0  0  0  0  0  0
  1  2  1  0
  2  3  1  0
  2  4  1  0
  4  5  1  0
  2  6  2  0
  5  7  1  0
  3  8  1  0
  7  9  1  0
  9 10  1  0
  8 11  1  0
  8 12  2  0
  8 13  1  0
  7 14  1  0
 10 15  1  0
 14 16  1  0
 15 17  1  0
M  END
