
     RDKit          3D

 17 18  0  0  0  0  0  0  0  0999 V2000
  -12.7331   26.8231  -21.3384 C   0  0  0  0  0  0  0  0  0  0  0  0
  -13.8693   27.0786  -21.7415 C   0  0  0  0  0  0  0  0  0  0  0  0
  -11.5737   26.3628  -20.8400 C   0  0  0  0  0  0  0  0  0  0  0  0
  -10.7391   27.1578  -20.3244 C   0  0  0  0  0  0  0  0  0  0  0  0
  -15.1302   27.5941  -22.2143 C   0  0  0  0  0  0  0  0  0  0  0  0
  -11.4010   25.0874  -21.0169 C   0  0  0  0  0  0  0  0  0  0  0  0
  -10.1763   24.6451  -20.6270 C   0  0  0  0  0  0  0  0  0  0  0  0
  -15.5528   28.7258  -21.8204 C   0  0  0  0  0  0  0  0  0  0  0  0
  -10.8539   28.5002  -20.0342 C   0  0  0  0  0  0  0  0  0  0  0  0
  -10.2093   29.2143  -19.7435 C   0  0  0  0  0  0  0  0  0  0  0  0
   -9.6046   26.5207  -20.0676 C   0  0  0  0  0  0  0  0  0  0  0  0
  -14.7820   29.6980  -21.1892 C   0  0  0  0  0  0  0  0  0  0  0  0
   -8.6656   27.3931  -19.5123 C   0  0  0  0  0  0  0  0  0  0  0  0
   -8.9179   28.7525  -19.3650 C   0  0  0  0  0  0  0  0  0  0  0  0
   -9.1947   25.3584  -20.1280 C   0  0  0  0  0  0  0  0  0  0  0  0
  -13.6773   29.8706  -21.6789 N   0  0  0  0  0  0  0  0  0  0  0  0
  -12.9876   30.9520  -21.4990 C   0  0  0  0  0  0  0  0  0  0  0  0
  1  2  3  0
  1  3  1  0
  3  4  1  0
  2  5  1  0
  3  6  2  0
  6  7  1  0
  5  8  2  3
  4  9  2  0
  9 10  1  0
  4 11  1  0
  8 12  1  0
 11 13  2  0
 10 14  2  0
 13 14  1  0
  7 15  2  0
 11 15  1  0
 12 16  1  0
 16 17  1  0
M  END
