
     RDKit          3D

 17 16  0  0  0  0  0  0  0  0999 V2000
  -21.4848   34.1844  -20.9359 O   0  0  0  0  0  0  0  0  0  0  0  0
  -20.1606   33.7357  -20.6680 P   0  0  0  0  0  0  0  0  0  0  0  0
  -19.3599   33.5071  -21.9029 O   0  0  0  0  0  0  0  0  0  0  0  0
  -20.3596   32.3840  -19.8088 O   0  0  0  0  0  0  0  0  0  0  0  0
  -18.4175   32.4625  -22.1945 C   0  0  0  0  0  0  0  0  0  0  0  0
  -18.0246   32.2967  -23.5623 C   0  0  0  0  0  0  0  0  0  0  0  0
  -19.1621   34.6148  -19.7926 O   0  0  0  0  0  0  0  0  0  0  0  0
  -17.3311   31.2326  -23.8729 O   0  0  0  0  0  0  0  0  0  0  0  0
  -16.7621   30.6420  -22.8355 C   0  0  0  0  0  0  0  0  0  0  0  0
  -17.1924   29.6661  -22.3637 O   0  0  0  0  0  0  0  0  0  0  0  0
  -19.2892   32.4086  -24.5292 C   0  0  0  0  0  0  0  0  0  0  0  0
  -15.3477   30.8577  -22.5915 N   0  0  0  0  0  0  0  0  0  0  0  0
  -14.6206   29.9824  -21.8578 C   0  0  0  0  0  0  0  0  0  0  0  0
  -14.8638   28.5422  -22.2310 C   0  0  0  0  0  0  0  0  0  0  0  0
  -14.0073   28.1036  -23.1647 O   0  0  0  0  0  0  0  0  0  0  0  0
  -15.8242   27.9150  -21.7207 O   0  0  0  0  0  0  0  0  0  0  0  0
  -18.9413   31.3632  -25.6009 O   0  0  0  0  0  0  0  0  0  0  0  0
  1  2  2  0
  2  3  1  0
  2  4  1  0
  3  5  1  0
  5  6  1  0
  2  7  1  0
  6  8  1  0
  8  9  1  0
  9 10  2  0
  6 11  1  0
  9 12  1  0
 12 13  1  0
 13 14  1  0
 14 15  2  0
 14 16  1  0
 11 17  1  0
M  END
