
     RDKit          3D

 18 18  0  0  0  0  0  0  0  0999 V2000
  -13.6967   27.3305  -22.4177 O   0  0  0  0  0  0  0  0  0  0  0  0
  -15.0091   27.5420  -22.0847 C   0  0  0  0  0  0  0  0  0  0  0  0
  -15.9016   26.8772  -21.8373 O   0  0  0  0  0  0  0  0  0  0  0  0
  -15.3411   29.1168  -21.8479 C   0  0  0  0  0  0  0  0  0  0  0  0
  -16.5976   29.5070  -21.9407 C   0  0  0  0  0  0  0  0  0  0  0  0
  -17.6451   29.0524  -21.9328 O   0  0  0  0  0  0  0  0  0  0  0  0
  -16.5838   30.8507  -22.7810 N   0  0  0  0  0  0  0  0  0  0  0  0
  -15.4113   31.4023  -23.3079 C   0  0  0  0  0  0  0  0  0  0  0  0
  -14.2494   30.7924  -23.3652 C   0  0  0  0  0  0  0  0  0  0  0  0
  -14.0774   29.6737  -22.6545 C   0  0  0  0  0  0  0  0  0  0  0  0
  -17.9129   31.3987  -23.0707 C   0  0  0  0  0  0  0  0  0  0  0  0
  -18.2158   32.3582  -22.1326 C   0  0  0  0  0  0  0  0  0  0  0  0
  -18.2368   33.6095  -22.5420 O   0  0  0  0  0  0  0  0  0  0  0  0
  -18.8550   31.9167  -21.0167 N   0  0  0  0  0  0  0  0  0  0  0  0
  -19.5022   32.7567  -20.0954 P   0  0  0  0  0  0  0  0  0  0  0  0
  -20.3346   33.6485  -20.5996 O   0  0  0  0  0  0  0  0  0  0  0  0
  -20.4243   31.7752  -19.1865 O   0  0  0  0  0  0  0  0  0  0  0  0
  -18.5944   33.5088  -19.1008 O   0  0  0  0  0  0  0  0  0  0  0  0
  1  2  2  0
  2  3  1  0
  2  4  1  0
  4  5  1  0
  5  6  2  0
  5  7  1  0
  7  8  1  0
  8  9  2  0
  4 10  1  0
  9 10  1  0
  7 11  1  0
 11 12  1  0
 12 13  2  0
 12 14  1  0
 14 15  1  0
 15 16  1  0
 15 17  2  0
 15 18  1  0
M  END
