
     RDKit          3D

 18 17  0  0  0  0  0  0  0  0999 V2000
  -20.9725   33.4920  -20.6001 O   0  0  0  0  0  0  0  0  0  0  0  0
  -19.6590   33.2417  -20.9881 P   0  0  0  0  0  0  0  0  0  0  0  0
  -19.0569   34.3066  -21.4505 O   0  0  0  0  0  0  0  0  0  0  0  0
  -19.6984   32.2579  -22.2980 O   0  0  0  0  0  0  0  0  0  0  0  0
  -18.7281   31.3459  -22.6770 C   0  0  0  0  0  0  0  0  0  0  0  0
  -18.7929   32.3505  -20.0038 O   0  0  0  0  0  0  0  0  0  0  0  0
  -18.1468   31.5726  -23.8902 C   0  0  0  0  0  0  0  0  0  0  0  0
  -18.3941   35.7028  -20.6955 P   0  0  0  0  0  0  0  0  0  0  0  0
  -16.7125   31.7424  -23.9244 O   0  0  0  0  0  0  0  0  0  0  0  0
  -15.7875   30.7622  -23.4563 C   0  0  0  0  0  0  0  0  0  0  0  0
  -18.5736   32.9165  -24.6367 C   0  0  0  0  0  0  0  0  0  0  0  0
  -18.4112   32.7697  -26.0540 O   0  0  0  0  0  0  0  0  0  0  0  0
  -17.2895   36.1595  -21.5620 O   0  0  0  0  0  0  0  0  0  0  0  0
  -19.4736   36.7870  -21.0693 O   0  0  0  0  0  0  0  0  0  0  0  0
  -14.5257   31.0402  -23.5239 O   0  0  0  0  0  0  0  0  0  0  0  0
  -16.2593   29.9709  -22.3971 N   0  0  0  0  0  0  0  0  0  0  0  0
  -15.3109   29.0040  -21.8428 O   0  0  0  0  0  0  0  0  0  0  0  0
  -18.2053   35.4260  -19.3574 O   0  0  0  0  0  0  0  0  0  0  0  0
  1  2  1  0
  2  3  1  0
  2  4  1  0
  4  5  1  0
  2  6  2  0
  5  7  1  0
  3  8  1  0
  7  9  1  0
  9 10  1  0
  7 11  1  0
 11 12  1  0
  8 13  2  0
  8 14  1  0
 10 15  2  0
 10 16  1  0
 16 17  1  0
  8 18  1  0
M  END
