
     RDKit          3D

  5  5  0  0  0  0  0  0  0  0999 V2000
  -11.1333   35.0178  -29.1201 C   0  0  0  0  0  0  0  0  0  0  0  0
  -10.9568   35.2740  -30.2712 C   0  0  0  0  0  0  0  0  0  0  0  0
  -11.1137   36.0893  -28.1701 C   0  0  0  0  0  0  0  0  0  0  0  0
  -10.6312   36.3098  -30.6519 C   0  0  0  0  0  0  0  0  0  0  0  0
  -10.7400   37.3074  -29.5061 C   0  0  0  0  0  0  0  0  0  0  0  0
  1  2  1  0
  1  3  2  0
  2  4  2  0
  3  5  1  0
  4  5  1  0
M  END
