
     RDKit          3D

 19 18  0  0  0  0  0  0  0  0999 V2000
  -21.0360   33.4111  -20.4038 O   0  0  0  0  0  0  0  0  0  0  0  0
  -19.6943   33.3874  -20.9457 P   0  0  0  0  0  0  0  0  0  0  0  0
  -19.3261   34.5555  -21.5107 O   0  0  0  0  0  0  0  0  0  0  0  0
  -19.5236   32.2074  -21.9789 O   0  0  0  0  0  0  0  0  0  0  0  0
  -18.6904   32.9385  -19.8067 O   0  0  0  0  0  0  0  0  0  0  0  0
  -18.8995   31.0762  -21.9645 C   0  0  0  0  0  0  0  0  0  0  0  0
  -18.6546   35.8773  -21.3687 P   0  0  0  0  0  0  0  0  0  0  0  0
  -18.0490   30.9213  -23.1185 C   0  0  0  0  0  0  0  0  0  0  0  0
  -16.7236   31.4548  -23.0513 N   0  0  0  0  0  0  0  0  0  0  0  0
  -15.6368   30.6556  -23.1249 C   0  0  0  0  0  0  0  0  0  0  0  0
  -15.5821   29.4808  -22.4180 C   0  0  0  0  0  0  0  0  0  0  0  0
  -17.7813   36.2044  -22.4127 O   0  0  0  0  0  0  0  0  0  0  0  0
  -19.5180   36.9123  -20.8985 O   0  0  0  0  0  0  0  0  0  0  0  0
  -17.7789   35.4622  -20.0293 O   0  0  0  0  0  0  0  0  0  0  0  0
  -16.6693   32.4967  -24.3180 C   0  0  0  0  0  0  0  0  0  0  0  0
  -15.2394   28.3078  -22.8752 C   0  0  0  0  0  0  0  0  0  0  0  0
  -14.9026   27.4018  -21.9935 O   0  0  0  0  0  0  0  0  0  0  0  0
  -16.3226   33.7627  -24.0238 C   0  0  0  0  0  0  0  0  0  0  0  0
  -15.1344   34.1384  -24.6792 O   0  0  0  0  0  0  0  0  0  0  0  0
  1  2  1  0
  2  3  1  0
  2  4  1  0
  2  5  2  0
  4  6  1  0
  3  7  1  0
  6  8  1  0
  8  9  1  0
  9 10  1  0
 10 11  1  0
  7 12  1  0
  7 13  2  0
  7 14  1  0
  9 15  1  0
 11 16  1  0
 16 17  1  0
 15 18  1  0
 18 19  1  0
M  END
