
     RDKit          3D

 19 21  0  0  0  0  0  0  0  0999 V2000
  -12.5238   26.8138  -22.1886 C   0  0  0  0  0  0  0  0  0  0  0  0
  -11.8431   26.3036  -21.2888 C   0  0  0  0  0  0  0  0  0  0  0  0
  -10.4898   26.5874  -21.0180 C   0  0  0  0  0  0  0  0  0  0  0  0
   -9.5882   25.9810  -20.4869 C   0  0  0  0  0  0  0  0  0  0  0  0
  -12.0349   27.7791  -22.8279 C   0  0  0  0  0  0  0  0  0  0  0  0
  -12.9355   28.6985  -23.5463 C   0  0  0  0  0  0  0  0  0  0  0  0
  -14.1435   28.9788  -22.8827 C   0  0  0  0  0  0  0  0  0  0  0  0
  -14.5541   30.2906  -22.6602 C   0  0  0  0  0  0  0  0  0  0  0  0
  -16.0140   30.5016  -22.7986 C   0  0  0  0  0  0  0  0  0  0  0  0
  -16.8677   29.6342  -22.2134 C   0  0  0  0  0  0  0  0  0  0  0  0
  -16.5891   31.7208  -23.2976 C   0  0  0  0  0  0  0  0  0  0  0  0
  -18.2341   29.7397  -22.2507 C   0  0  0  0  0  0  0  0  0  0  0  0
  -13.8195   30.8468  -23.4636 C   0  0  0  0  0  0  0  0  0  0  0  0
  -12.9285   30.1963  -23.6439 C   0  0  0  0  0  0  0  0  0  0  0  0
  -16.3343   28.4036  -21.5372 C   0  0  0  0  0  0  0  0  0  0  0  0
  -16.9341   27.5040  -21.1620 O   0  0  0  0  0  0  0  0  0  0  0  0
  -14.9399   28.3583  -22.0371 C   0  0  0  0  0  0  0  0  0  0  0  0
  -18.7160   30.8457  -22.8909 C   0  0  0  0  0  0  0  0  0  0  0  0
  -17.9127   31.8248  -23.3786 C   0  0  0  0  0  0  0  0  0  0  0  0
  1  2  1  0
  2  3  2  3
  3  4  1  0
  1  5  2  3
  5  6  1  0
  6  7  1  0
  7  8  1  0
  8  9  1  0
  9 10  2  0
  9 11  1  0
 10 12  1  0
  8 13  1  0
  6 14  1  0
 13 14  1  0
 10 15  1  0
 15 16  2  0
  7 17  1  0
 15 17  1  0
 12 18  2  0
 11 19  2  0
 18 19  1  0
M  END
