
     RDKit          3D

 19 19  0  0  0  0  0  0  0  0999 V2000
  -19.1726   34.4821  -19.8441 O   0  0  0  0  0  0  0  0  0  0  0  0
  -19.3740   33.3617  -20.4439 P   0  0  0  0  0  0  0  0  0  0  0  0
  -18.4681   32.9629  -21.5208 O   0  0  0  0  0  0  0  0  0  0  0  0
  -18.3319   31.5302  -22.2262 C   0  0  0  0  0  0  0  0  0  0  0  0
  -17.3296   31.6237  -23.2665 C   0  0  0  0  0  0  0  0  0  0  0  0
  -20.7941   33.3913  -21.1524 O   0  0  0  0  0  0  0  0  0  0  0  0
  -19.4563   32.1625  -19.4311 O   0  0  0  0  0  0  0  0  0  0  0  0
  -17.5897   32.2891  -24.3510 N   0  0  0  0  0  0  0  0  0  0  0  0
  -18.7385   32.7185  -24.9803 C   0  0  0  0  0  0  0  0  0  0  0  0
  -16.4004   30.7943  -23.1468 N   0  0  0  0  0  0  0  0  0  0  0  0
  -16.2883   29.6907  -22.1992 C   0  0  0  0  0  0  0  0  0  0  0  0
  -18.5897   33.3667  -26.2272 C   0  0  0  0  0  0  0  0  0  0  0  0
  -16.4782   33.1917  -24.8940 C   0  0  0  0  0  0  0  0  0  0  0  0
  -17.1359   33.9671  -25.9989 C   0  0  0  0  0  0  0  0  0  0  0  0
  -16.3090   34.1819  -27.2212 C   0  0  0  0  0  0  0  0  0  0  0  0
  -17.2389   35.4511  -25.4274 C   0  0  0  0  0  0  0  0  0  0  0  0
  -15.2506   29.6172  -21.4272 O   0  0  0  0  0  0  0  0  0  0  0  0
  -16.9813   28.6336  -22.4196 O   0  0  0  0  0  0  0  0  0  0  0  0
  -16.4891   27.3408  -21.9145 C   0  0  0  0  0  0  0  0  0  0  0  0
  1  2  1  0
  2  3  1  0
  3  4  1  0
  4  5  1  0
  2  6  2  0
  2  7  1  0
  5  8  1  0
  8  9  1  0
  5 10  2  3
 10 11  1  0
  9 12  1  0
  8 13  1  0
 12 14  1  0
 13 14  1  0
 14 15  1  0
 14 16  1  0
 11 17  2  0
 11 18  1  0
 18 19  1  0
M  END
