
     RDKit          3D

 20 20  0  0  0  0  0  0  0  0999 V2000
  -13.6967   27.3305  -22.4177 O   0  0  0  0  0  0  0  0  0  0  0  0
  -15.0091   27.5420  -22.0847 C   0  0  0  0  0  0  0  0  0  0  0  0
  -15.9016   26.8772  -21.8373 O   0  0  0  0  0  0  0  0  0  0  0  0
  -15.3411   29.1168  -21.8479 C   0  0  0  0  0  0  0  0  0  0  0  0
  -16.5976   29.5070  -21.9407 C   0  0  0  0  0  0  0  0  0  0  0  0
  -16.7081   30.8967  -22.4380 N   0  0  0  0  0  0  0  0  0  0  0  0
  -15.8607   31.1709  -23.5730 C   0  0  0  0  0  0  0  0  0  0  0  0
  -18.1036   31.3307  -22.7193 C   0  0  0  0  0  0  0  0  0  0  0  0
  -14.5869   30.9287  -23.3458 C   0  0  0  0  0  0  0  0  0  0  0  0
  -14.2495   29.6931  -22.8012 C   0  0  0  0  0  0  0  0  0  0  0  0
  -18.3259   32.6033  -22.0946 C   0  0  0  0  0  0  0  0  0  0  0  0
  -18.8799   30.5608  -23.3252 O   0  0  0  0  0  0  0  0  0  0  0  0
  -18.2416   33.6753  -22.9444 O   0  0  0  0  0  0  0  0  0  0  0  0
  -18.1487   34.9908  -22.9803 P   0  0  0  0  0  0  0  0  0  0  0  0
  -19.7666   32.5781  -21.4303 C   0  0  0  0  0  0  0  0  0  0  0  0
  -20.2276   33.7077  -20.9323 O   0  0  0  0  0  0  0  0  0  0  0  0
  -20.0808   31.4862  -20.8122 O   0  0  0  0  0  0  0  0  0  0  0  0
  -16.7949   35.3196  -22.6796 O   0  0  0  0  0  0  0  0  0  0  0  0
  -18.5292   35.5691  -24.3872 O   0  0  0  0  0  0  0  0  0  0  0  0
  -19.0259   35.7529  -21.9020 O   0  0  0  0  0  0  0  0  0  0  0  0
  1  2  2  0
  2  3  1  0
  2  4  1  0
  4  5  1  0
  5  6  1  0
  6  7  1  0
  6  8  1  0
  7  9  2  0
  4 10  1  0
  9 10  1  0
  8 11  1  0
  8 12  2  0
 11 13  1  0
 13 14  1  0
 11 15  1  0
 15 16  2  0
 15 17  1  0
 14 18  1  0
 14 19  2  0
 14 20  1  0
M  END
