
     RDKit          3D

  5  4  0  0  0  0  0  0  0  0999 V2000
  -13.2303   27.0584  -22.1118 O   0  0  0  0  0  0  0  0  0  0  0  0
  -14.4789   27.0715  -21.5879 C   0  0  0  0  0  0  0  0  0  0  0  0
  -15.1444   28.2495  -22.4008 C   0  0  0  0  0  0  0  0  0  0  0  0
  -14.4855   29.1225  -23.0298 O   0  0  0  0  0  0  0  0  0  0  0  0
  -16.4794   28.1047  -22.5039 O   0  0  0  0  0  0  0  0  0  0  0  0
  1  2  1  0
  2  3  1  0
  3  4  2  0
  3  5  1  0
M  END
