
     RDKit          3D

 20 19  0  0  0  0  0  0  0  0999 V2000
  -20.9855   33.8248  -21.2417 O   0  0  0  0  0  0  0  0  0  0  0  0
  -19.7359   33.2849  -20.8931 P   0  0  0  0  0  0  0  0  0  0  0  0
  -19.0856   32.6446  -22.1075 O   0  0  0  0  0  0  0  0  0  0  0  0
  -18.6162   34.3091  -20.4929 O   0  0  0  0  0  0  0  0  0  0  0  0
  -19.7831   32.2235  -19.7730 O   0  0  0  0  0  0  0  0  0  0  0  0
  -18.7815   31.0912  -22.3230 C   0  0  0  0  0  0  0  0  0  0  0  0
  -18.0130   35.5457  -21.4434 P   0  0  0  0  0  0  0  0  0  0  0  0
  -17.7610   34.8740  -22.7431 O   0  0  0  0  0  0  0  0  0  0  0  0
  -17.8025   30.9679  -23.3280 C   0  0  0  0  0  0  0  0  0  0  0  0
  -16.8665   36.1930  -20.7659 O   0  0  0  0  0  0  0  0  0  0  0  0
  -16.5416   35.3073  -23.6921 P   0  0  0  0  0  0  0  0  0  0  0  0
  -16.4079   31.1378  -22.9122 C   0  0  0  0  0  0  0  0  0  0  0  0
  -16.2273   30.1729  -21.7447 O   0  0  0  0  0  0  0  0  0  0  0  0
  -18.1831   29.7956  -23.9350 O   0  0  0  0  0  0  0  0  0  0  0  0
  -19.2639   36.5153  -21.5456 O   0  0  0  0  0  0  0  0  0  0  0  0
  -15.4720   30.7412  -23.9696 C   0  0  0  0  0  0  0  0  0  0  0  0
  -14.3853   30.2949  -23.3949 O   0  0  0  0  0  0  0  0  0  0  0  0
  -16.2495   34.1593  -24.6375 O   0  0  0  0  0  0  0  0  0  0  0  0
  -15.3528   35.7003  -23.3114 O   0  0  0  0  0  0  0  0  0  0  0  0
  -17.3693   36.3184  -24.7035 O   0  0  0  0  0  0  0  0  0  0  0  0
  1  2  1  0
  2  3  1  0
  2  4  1  0
  2  5  2  0
  3  6  1  0
  4  7  1  0
  7  8  1  0
  6  9  1  0
  7 10  1  0
  8 11  1  0
  9 12  1  0
 12 13  1  0
  9 14  1  0
  7 15  2  0
 12 16  1  0
 16 17  1  0
 11 18  1  0
 11 19  1  0
 11 20  2  0
M  END
