
     RDKit          3D

 20 20  0  0  0  0  0  0  0  0999 V2000
  -20.9725   33.4920  -20.6001 O   0  0  0  0  0  0  0  0  0  0  0  0
  -19.6590   33.2417  -20.9881 P   0  0  0  0  0  0  0  0  0  0  0  0
  -19.0569   34.3066  -21.4505 O   0  0  0  0  0  0  0  0  0  0  0  0
  -19.6984   32.2579  -22.2980 O   0  0  0  0  0  0  0  0  0  0  0  0
  -18.7281   31.3459  -22.6770 C   0  0  0  0  0  0  0  0  0  0  0  0
  -18.6378   30.9654  -23.8741 C   0  0  0  0  0  0  0  0  0  0  0  0
  -17.6138   31.8377  -24.6766 C   0  0  0  0  0  0  0  0  0  0  0  0
  -18.8709   32.3967  -19.9947 O   0  0  0  0  0  0  0  0  0  0  0  0
  -16.4093   31.9922  -24.1830 O   0  0  0  0  0  0  0  0  0  0  0  0
  -18.4618   35.7513  -20.6890 P   0  0  0  0  0  0  0  0  0  0  0  0
  -17.9750   35.4728  -19.4885 O   0  0  0  0  0  0  0  0  0  0  0  0
  -18.2440   33.2731  -24.8753 C   0  0  0  0  0  0  0  0  0  0  0  0
  -19.5548   36.7408  -20.7392 O   0  0  0  0  0  0  0  0  0  0  0  0
  -17.3011   36.3281  -21.6769 O   0  0  0  0  0  0  0  0  0  0  0  0
  -17.3870   34.3069  -24.5830 N   0  0  0  0  0  0  0  0  0  0  0  0
  -18.5837   33.3640  -26.3329 O   0  0  0  0  0  0  0  0  0  0  0  0
  -16.1042   34.1151  -24.7157 C   0  0  0  0  0  0  0  0  0  0  0  0
  -17.7224   35.6356  -25.0214 C   0  0  0  0  0  0  0  0  0  0  0  0
  -15.5462   32.8683  -24.5074 C   0  0  0  0  0  0  0  0  0  0  0  0
  -18.9271   32.2999  -27.0116 C   0  0  0  0  0  0  0  0  0  0  0  0
  1  2  1  0
  2  3  1  0
  2  4  1  0
  4  5  1  0
  5  6  1  0
  6  7  1  0
  2  8  2  0
  7  9  1  0
  3 10  1  0
 10 11  1  0
  7 12  1  0
 10 13  2  0
 10 14  1  0
 12 15  1  0
 12 16  1  0
 15 17  1  0
 15 18  1  0
  9 19  1  0
 17 19  2  0
 16 20  1  0
M  END
