
     RDKit          3D

 21 20  0  0  0  0  0  0  0  0999 V2000
  -13.9122   27.5043  -22.6589 O   0  0  0  0  0  0  0  0  0  0  0  0
  -15.1355   27.7013  -21.9508 C   0  0  0  0  0  0  0  0  0  0  0  0
  -15.8398   26.9327  -21.4906 O   0  0  0  0  0  0  0  0  0  0  0  0
  -15.6225   29.1780  -22.0315 C   0  0  0  0  0  0  0  0  0  0  0  0
  -14.8508   30.1657  -22.5347 C   0  0  0  0  0  0  0  0  0  0  0  0
  -13.7752   30.0652  -23.1927 O   0  0  0  0  0  0  0  0  0  0  0  0
  -15.5039   31.5580  -22.5070 C   0  0  0  0  0  0  0  0  0  0  0  0
  -16.8612   31.6888  -22.6996 N   0  0  0  0  0  0  0  0  0  0  0  0
  -17.3927   31.7428  -23.8740 C   0  0  0  0  0  0  0  0  0  0  0  0
  -18.8150   31.8080  -23.8640 C   0  0  0  0  0  0  0  0  0  0  0  0
  -16.7819   32.5805  -24.8642 C   0  0  0  0  0  0  0  0  0  0  0  0
  -19.2671   31.7039  -22.5952 O   0  0  0  0  0  0  0  0  0  0  0  0
  -19.4644   32.8117  -21.6030 P   0  0  0  0  0  0  0  0  0  0  0  0
  -16.8994   33.9583  -24.5942 O   0  0  0  0  0  0  0  0  0  0  0  0
  -17.3134   35.0796  -25.4778 P   0  0  0  0  0  0  0  0  0  0  0  0
  -17.2223   36.2411  -24.6461 O   0  0  0  0  0  0  0  0  0  0  0  0
  -16.2283   35.1449  -26.5995 O   0  0  0  0  0  0  0  0  0  0  0  0
  -18.6690   34.9859  -26.2692 O   0  0  0  0  0  0  0  0  0  0  0  0
  -19.9387   32.3888  -20.3542 O   0  0  0  0  0  0  0  0  0  0  0  0
  -20.4830   33.7525  -22.1725 O   0  0  0  0  0  0  0  0  0  0  0  0
  -18.1779   33.6527  -21.4455 O   0  0  0  0  0  0  0  0  0  0  0  0
  1  2  2  0
  2  3  1  0
  2  4  1  0
  4  5  2  3
  5  6  1  0
  5  7  1  0
  7  8  1  0
  8  9  1  0
  9 10  1  0
  9 11  1  0
 10 12  1  0
 12 13  1  0
 11 14  1  0
 14 15  1  0
 15 16  1  0
 15 17  2  0
 15 18  1  0
 13 19  1  0
 13 20  2  0
 13 21  1  0
M  END
