
     RDKit          3D

 21 21  0  0  0  0  0  0  0  0999 V2000
  -14.5825   27.4552  -22.7613 O   0  0  0  0  0  0  0  0  0  0  0  0
  -15.5359   27.9900  -21.9014 C   0  0  0  0  0  0  0  0  0  0  0  0
  -16.3468   27.3975  -21.3305 O   0  0  0  0  0  0  0  0  0  0  0  0
  -15.8169   29.5035  -22.1016 C   0  0  0  0  0  0  0  0  0  0  0  0
  -14.9026   30.2120  -22.6832 O   0  0  0  0  0  0  0  0  0  0  0  0
  -17.0903   29.9028  -21.9508 N   0  0  0  0  0  0  0  0  0  0  0  0
  -17.3600   31.2898  -22.3060 C   0  0  0  0  0  0  0  0  0  0  0  0
  -18.4009   31.8583  -21.4397 C   0  0  0  0  0  0  0  0  0  0  0  0
  -19.2976   31.1757  -20.8836 O   0  0  0  0  0  0  0  0  0  0  0  0
  -17.8841   31.1605  -23.8014 C   0  0  0  0  0  0  0  0  0  0  0  0
  -17.9571   32.5269  -24.4490 N   0  0  0  0  0  0  0  0  0  0  0  0
  -18.4205   32.4049  -25.7935 C   0  0  0  0  0  0  0  0  0  0  0  0
  -16.7869   33.4558  -24.3431 C   0  0  0  0  0  0  0  0  0  0  0  0
  -18.3696   33.1060  -21.0142 O   0  0  0  0  0  0  0  0  0  0  0  0
  -18.3278   33.6694  -26.5039 C   0  0  0  0  0  0  0  0  0  0  0  0
  -18.5991   33.5920  -27.9126 O   0  0  0  0  0  0  0  0  0  0  0  0
  -16.7771   34.1781  -26.2585 C   0  0  0  0  0  0  0  0  0  0  0  0
  -16.5636   35.3259  -27.2236 C   0  0  0  0  0  0  0  0  0  0  0  0
  -16.6638   34.8059  -25.0374 C   0  0  0  0  0  0  0  0  0  0  0  0
  -15.4240   35.3672  -24.6702 O   0  0  0  0  0  0  0  0  0  0  0  0
  -15.7030   35.0768  -28.2756 O   0  0  0  0  0  0  0  0  0  0  0  0
  1  2  2  0
  2  3  1  0
  2  4  1  0
  4  5  2  0
  4  6  1  0
  6  7  1  0
  7  8  1  0
  8  9  1  0
  7 10  1  0
 10 11  1  0
 11 12  1  0
 11 13  1  0
  8 14  2  0
 12 15  1  0
 15 16  1  0
 15 17  1  0
 17 18  1  0
 13 19  1  0
 17 19  1  0
 19 20  1  0
 18 21  1  0
M  END
