
     RDKit          3D

 13 12  0  0  0  0  0  0  0  0999 V2000
  -14.0575   27.5600  -22.6907 O   0  0  0  0  0  0  0  0  0  0  0  0
  -15.4266   27.8984  -22.0769 C   0  0  0  0  0  0  0  0  0  0  0  0
  -15.6065   29.3569  -22.3277 C   0  0  0  0  0  0  0  0  0  0  0  0
  -16.9278   29.7516  -22.6036 N   0  0  0  0  0  0  0  0  0  0  0  0
  -14.8447   30.2070  -22.1068 O   0  0  0  0  0  0  0  0  0  0  0  0
  -17.2401   30.9912  -23.0446 C   0  0  0  0  0  0  0  0  0  0  0  0
  -16.9964   31.4431  -24.2279 C   0  0  0  0  0  0  0  0  0  0  0  0
  -17.3893   32.8179  -24.5975 C   0  0  0  0  0  0  0  0  0  0  0  0
  -16.5098   33.7579  -24.8375 C   0  0  0  0  0  0  0  0  0  0  0  0
  -16.7996   34.9844  -25.3497 C   0  0  0  0  0  0  0  0  0  0  0  0
  -16.6253   35.0442  -26.7610 C   0  0  0  0  0  0  0  0  0  0  0  0
  -18.1512   35.3610  -25.0361 C   0  0  0  0  0  0  0  0  0  0  0  0
  -15.9838   36.1613  -24.8509 O   0  0  0  0  0  0  0  0  0  0  0  0
  1  2  1  0
  2  3  1  0
  3  4  1  0
  3  5  2  0
  4  6  1  0
  6  7  1  0
  7  8  1  0
  8  9  1  0
  9 10  1  0
 10 11  1  0
 10 12  1  0
 10 13  1  0
M  END
