
     RDKit          3D

 13 14  0  0  0  0  0  0  0  0999 V2000
  -16.5405   33.4176  -27.8652 C   0  0  0  0  0  0  0  0  0  0  0  0
  -17.1170   33.9604  -26.7934 C   0  0  0  0  0  0  0  0  0  0  0  0
  -15.9719   34.2954  -28.7843 O   0  0  0  0  0  0  0  0  0  0  0  0
  -16.3389   34.8767  -26.1156 C   0  0  0  0  0  0  0  0  0  0  0  0
  -18.5198   34.5246  -27.0165 O   0  0  0  0  0  0  0  0  0  0  0  0
  -17.6237   33.0381  -25.5775 C   0  0  0  0  0  0  0  0  0  0  0  0
  -17.3777   33.5041  -24.3939 O   0  0  0  0  0  0  0  0  0  0  0  0
  -18.9937   32.4537  -25.7043 C   0  0  0  0  0  0  0  0  0  0  0  0
  -15.1613   35.2227  -26.4835 O   0  0  0  0  0  0  0  0  0  0  0  0
  -16.1944   34.3164  -24.6097 C   0  0  0  0  0  0  0  0  0  0  0  0
  -19.5902   33.6576  -26.4734 C   0  0  0  0  0  0  0  0  0  0  0  0
  -19.0836   31.1973  -26.4128 O   0  0  0  0  0  0  0  0  0  0  0  0
  -20.3906   34.5652  -25.8188 O   0  0  0  0  0  0  0  0  0  0  0  0
  1  2  1  0
  1  3  1  0
  2  4  1  0
  2  5  1  0
  2  6  1  0
  6  7  1  0
  6  8  1  0
  4  9  1  0
  4 10  1  0
  7 10  1  0
  5 11  1  0
  8 11  1  0
  8 12  1  0
 11 13  1  0
M  END
