
     RDKit          3D

 13 12  0  0  0  0  0  0  0  0999 V2000
  -14.3088   27.8307  -22.7389 O   0  0  0  0  0  0  0  0  0  0  0  0
  -15.5360   28.3784  -22.3164 C   0  0  0  0  0  0  0  0  0  0  0  0
  -15.6767   29.7258  -22.3569 C   0  0  0  0  0  0  0  0  0  0  0  0
  -16.6048   30.2702  -23.3552 O   0  0  0  0  0  0  0  0  0  0  0  0
  -16.5293   31.5720  -23.6877 C   0  0  0  0  0  0  0  0  0  0  0  0
  -17.8288   32.2626  -23.7895 C   0  0  0  0  0  0  0  0  0  0  0  0
  -16.5106   27.5863  -22.2023 O   0  0  0  0  0  0  0  0  0  0  0  0
  -17.9372   33.1406  -24.7686 O   0  0  0  0  0  0  0  0  0  0  0  0
  -17.1792   34.2432  -24.8526 C   0  0  0  0  0  0  0  0  0  0  0  0
  -16.4704   34.3290  -26.1708 C   0  0  0  0  0  0  0  0  0  0  0  0
  -18.8638   31.1945  -23.6993 C   0  0  0  0  0  0  0  0  0  0  0  0
  -19.7840   31.3871  -22.7681 O   0  0  0  0  0  0  0  0  0  0  0  0
  -15.7123   35.4521  -26.3848 O   0  0  0  0  0  0  0  0  0  0  0  0
  1  2  2  0
  2  3  1  0
  3  4  1  0
  4  5  1  0
  5  6  1  0
  2  7  1  0
  6  8  1  0
  8  9  1  0
  9 10  1  0
  6 11  1  0
 11 12  1  0
 10 13  1  0
M  END
