
     RDKit          3D

  4  3  0  0  0  0  0  0  0  0999 V2000
  -14.2576   27.8063  -22.8285 O   0  0  0  0  0  0  0  0  0  0  0  0
  -15.5048   28.0622  -22.0292 C   0  0  0  0  0  0  0  0  0  0  0  0
  -15.8420   29.4420  -22.1519 C   0  0  0  0  0  0  0  0  0  0  0  0
  -15.0305   30.2130  -22.8457 O   0  0  0  0  0  0  0  0  0  0  0  0
  1  2  1  0
  2  3  1  0
  3  4  1  0
M  END
