
     RDKit          3D

 14 13  0  0  0  0  0  0  0  0999 V2000
  -16.4396   36.5694  -20.4768 O   0  0  0  0  0  0  0  0  0  0  0  0
  -17.3824   36.7453  -21.4273 P   0  0  0  0  0  0  0  0  0  0  0  0
  -17.3405   35.5989  -22.4515 O   0  0  0  0  0  0  0  0  0  0  0  0
  -16.9894   35.6370  -23.9084 P   0  0  0  0  0  0  0  0  0  0  0  0
  -17.4327   34.3116  -24.4977 O   0  0  0  0  0  0  0  0  0  0  0  0
  -18.8318   36.2047  -20.6477 O   0  0  0  0  0  0  0  0  0  0  0  0
  -17.5808   38.0141  -21.7694 O   0  0  0  0  0  0  0  0  0  0  0  0
  -16.7407   33.5855  -25.5119 C   0  0  0  0  0  0  0  0  0  0  0  0
  -17.4334   33.2512  -26.5785 C   0  0  0  0  0  0  0  0  0  0  0  0
  -15.5181   35.7150  -24.0626 O   0  0  0  0  0  0  0  0  0  0  0  0
  -17.8019   36.6445  -24.6726 O   0  0  0  0  0  0  0  0  0  0  0  0
  -16.8579   33.7006  -27.7621 C   0  0  0  0  0  0  0  0  0  0  0  0
  -18.7935   33.9696  -26.6672 C   0  0  0  0  0  0  0  0  0  0  0  0
  -17.7864   31.8266  -26.6936 C   0  0  0  0  0  0  0  0  0  0  0  0
  1  2  1  0
  2  3  1  0
  3  4  1  0
  4  5  1  0
  2  6  1  0
  2  7  2  0
  5  8  1  0
  8  9  1  0
  4 10  1  0
  4 11  2  0
  9 12  1  0
  9 13  1  0
  9 14  1  0
M  END
