
     RDKit          3D

 15 15  0  0  0  0  0  0  0  0999 V2000
  -14.3426   27.5557  -22.6185 O   0  0  0  0  0  0  0  0  0  0  0  0
  -15.4051   28.3464  -22.2427 C   0  0  0  0  0  0  0  0  0  0  0  0
  -15.3545   29.6503  -22.4964 N   0  0  0  0  0  0  0  0  0  0  0  0
  -14.5059   30.3751  -23.1926 C   0  0  0  0  0  0  0  0  0  0  0  0
  -15.3327   31.4238  -23.8715 C   0  0  0  0  0  0  0  0  0  0  0  0
  -16.7683   31.4826  -23.8190 C   0  0  0  0  0  0  0  0  0  0  0  0
  -17.4156   32.5418  -24.4757 N   0  0  0  0  0  0  0  0  0  0  0  0
  -18.5626   32.3751  -24.9867 C   0  0  0  0  0  0  0  0  0  0  0  0
  -16.4969   33.4924  -25.2173 C   0  0  0  0  0  0  0  0  0  0  0  0
  -16.3690   34.7875  -24.6597 C   0  0  0  0  0  0  0  0  0  0  0  0
  -16.9695   33.7610  -26.7145 C   0  0  0  0  0  0  0  0  0  0  0  0
  -19.0379   32.7274  -26.2543 C   0  0  0  0  0  0  0  0  0  0  0  0
  -17.9952   32.8338  -27.1583 O   0  0  0  0  0  0  0  0  0  0  0  0
  -15.1865   35.3033  -24.5672 O   0  0  0  0  0  0  0  0  0  0  0  0
  -17.1930   35.2859  -23.8371 O   0  0  0  0  0  0  0  0  0  0  0  0
  1  2  2  0
  2  3  1  0
  3  4  1  0
  4  5  1  0
  5  6  1  0
  6  7  1  0
  7  8  1  0
  7  9  1  0
  9 10  1  0
  9 11  1  0
  8 12  1  0
 11 13  1  0
 12 13  1  0
 10 14  2  0
 10 15  1  0
M  END
