
     RDKit          3D

 15 15  0  0  0  0  0  0  0  0999 V2000
  -14.6860   27.7936  -22.6707 O   0  0  0  0  0  0  0  0  0  0  0  0
  -15.6230   28.4293  -21.9283 C   0  0  0  0  0  0  0  0  0  0  0  0
  -15.7334   29.7839  -22.1310 N   0  0  0  0  0  0  0  0  0  0  0  0
  -16.9171   30.4599  -22.1695 C   0  0  0  0  0  0  0  0  0  0  0  0
  -16.9805   31.4555  -23.1858 N   0  0  0  0  0  0  0  0  0  0  0  0
  -17.9530   30.2755  -21.6114 N   0  0  0  0  0  0  0  0  0  0  0  0
  -18.2289   32.0303  -23.5417 C   0  0  0  0  0  0  0  0  0  0  0  0
  -15.8698   31.5582  -24.1674 C   0  0  0  0  0  0  0  0  0  0  0  0
  -19.0143   31.1485  -22.1885 C   0  0  0  0  0  0  0  0  0  0  0  0
  -16.4354   32.4166  -25.3772 C   0  0  0  0  0  0  0  0  0  0  0  0
  -16.2471   27.8229  -20.9050 N   0  0  0  0  0  0  0  0  0  0  0  0
  -15.7165   33.6084  -25.6752 N   0  0  0  0  0  0  0  0  0  0  0  0
  -15.8567   34.7925  -24.9828 C   0  0  0  0  0  0  0  0  0  0  0  0
  -16.1709   35.7614  -25.6288 O   0  0  0  0  0  0  0  0  0  0  0  0
  -15.8402   34.9208  -23.6930 O   0  0  0  0  0  0  0  0  0  0  0  0
  1  2  2  0
  2  3  1  0
  3  4  1  0
  4  5  1  0
  4  6  2  0
  5  7  1  0
  5  8  1  0
  6  9  1  0
  7  9  2  0
  8 10  1  0
  2 11  1  0
 10 12  1  0
 12 13  1  0
 13 14  2  0
 13 15  1  0
M  END
