
     RDKit          3D

 16 16  0  0  0  0  0  0  0  0999 V2000
  -14.0649   27.5428  -22.6008 O   0  0  0  0  0  0  0  0  0  0  0  0
  -15.3394   28.1061  -22.3453 C   0  0  0  0  0  0  0  0  0  0  0  0
  -15.4870   29.4438  -22.5018 N   0  0  0  0  0  0  0  0  0  0  0  0
  -16.8245   29.9142  -22.3938 C   0  0  0  0  0  0  0  0  0  0  0  0
  -16.8718   31.2611  -22.9813 C   0  0  0  0  0  0  0  0  0  0  0  0
  -18.0771   31.9634  -22.8951 C   0  0  0  0  0  0  0  0  0  0  0  0
  -15.8883   31.6238  -23.9461 C   0  0  0  0  0  0  0  0  0  0  0  0
  -19.0821   31.4769  -21.9969 O   0  0  0  0  0  0  0  0  0  0  0  0
  -18.2923   33.1425  -23.4658 C   0  0  0  0  0  0  0  0  0  0  0  0
  -17.3621   33.6376  -24.3484 C   0  0  0  0  0  0  0  0  0  0  0  0
  -16.1692   32.8884  -24.5890 C   0  0  0  0  0  0  0  0  0  0  0  0
  -17.4480   34.9455  -25.1750 C   0  0  0  0  0  0  0  0  0  0  0  0
  -16.9888   34.8776  -26.3929 N   0  0  0  0  0  0  0  0  0  0  0  0
  -17.0021   34.0025  -27.4127 C   0  0  0  0  0  0  0  0  0  0  0  0
  -16.1815   34.1592  -28.3999 N   0  0  0  0  0  0  0  0  0  0  0  0
  -17.7284   32.9112  -27.2751 O   0  0  0  0  0  0  0  0  0  0  0  0
  1  2  2  0
  2  3  1  0
  3  4  1  0
  4  5  1  0
  5  6  1  0
  5  7  2  0
  6  8  1  0
  6  9  2  0
  9 10  1  0
  7 11  1  0
 10 11  2  0
 10 12  1  0
 12 13  1  0
 13 14  1  0
 14 15  1  0
 14 16  2  0
M  END
