
     RDKit          3D

 16 15  0  0  0  0  0  0  0  0999 V2000
  -16.4706   36.7335  -21.3453 O   0  0  0  0  0  0  0  0  0  0  0  0
  -17.8476   36.5063  -20.7977 P   0  0  0  0  0  0  0  0  0  0  0  0
  -18.5276   35.3828  -21.6077 O   0  0  0  0  0  0  0  0  0  0  0  0
  -18.7183   37.7938  -20.9715 O   0  0  0  0  0  0  0  0  0  0  0  0
  -17.8070   36.2303  -19.3621 O   0  0  0  0  0  0  0  0  0  0  0  0
  -19.4294   34.2655  -21.2377 P   0  0  0  0  0  0  0  0  0  0  0  0
  -19.1830   33.1032  -22.0692 O   0  0  0  0  0  0  0  0  0  0  0  0
  -18.5623   31.8297  -21.8229 C   0  0  0  0  0  0  0  0  0  0  0  0
  -20.8874   34.6282  -21.1856 O   0  0  0  0  0  0  0  0  0  0  0  0
  -19.1176   33.9693  -19.6216 O   0  0  0  0  0  0  0  0  0  0  0  0
  -19.1544   30.7864  -22.5625 C   0  0  0  0  0  0  0  0  0  0  0  0
  -18.2458   29.8756  -22.9876 O   0  0  0  0  0  0  0  0  0  0  0  0
  -16.7903   30.3353  -22.9944 C   0  0  0  0  0  0  0  0  0  0  0  0
  -15.7896   29.4266  -22.5748 C   0  0  0  0  0  0  0  0  0  0  0  0
  -14.6384   29.7399  -22.4891 O   0  0  0  0  0  0  0  0  0  0  0  0
  -16.1179   28.1317  -22.5420 N   0  0  0  0  0  0  0  0  0  0  0  0
  1  2  2  0
  2  3  1  0
  2  4  1  0
  2  5  1  0
  3  6  1  0
  6  7  1  0
  7  8  1  0
  6  9  2  0
  6 10  1  0
  8 11  1  0
 11 12  1  0
 12 13  1  0
 13 14  1  0
 14 15  2  0
 14 16  1  0
M  END
