
     RDKit          3D

  7  6  0  0  0  0  0  0  0  0999 V2000
  -14.3913   27.7197  -22.6780 O   0  0  0  0  0  0  0  0  0  0  0  0
  -15.6043   28.1442  -21.9846 C   0  0  0  0  0  0  0  0  0  0  0  0
  -15.7842   29.5591  -22.2203 C   0  0  0  0  0  0  0  0  0  0  0  0
  -16.8075   29.9120  -23.0497 N   0  0  0  0  0  0  0  0  0  0  0  0
  -17.2739   31.0342  -23.1918 C   0  0  0  0  0  0  0  0  0  0  0  0
  -18.5233   31.1795  -23.6563 C   0  0  0  0  0  0  0  0  0  0  0  0
  -19.4777   31.0782  -22.7189 O   0  0  0  0  0  0  0  0  0  0  0  0
  1  2  1  0
  2  3  1  0
  3  4  1  0
  4  5  1  0
  5  6  1  0
  6  7  1  0
M  END
