
     RDKit          3D

 16 16  0  0  0  0  0  0  0  0999 V2000
  -14.3426   27.5557  -22.6185 O   0  0  0  0  0  0  0  0  0  0  0  0
  -15.4051   28.3464  -22.2427 C   0  0  0  0  0  0  0  0  0  0  0  0
  -15.3545   29.6503  -22.4964 N   0  0  0  0  0  0  0  0  0  0  0  0
  -14.5059   30.3751  -23.1926 C   0  0  0  0  0  0  0  0  0  0  0  0
  -15.3327   31.4238  -23.8715 C   0  0  0  0  0  0  0  0  0  0  0  0
  -16.7683   31.4826  -23.8190 C   0  0  0  0  0  0  0  0  0  0  0  0
  -17.5226   30.5999  -23.0810 O   0  0  0  0  0  0  0  0  0  0  0  0
  -16.3553   27.7842  -21.3533 O   0  0  0  0  0  0  0  0  0  0  0  0
  -17.2974   32.5821  -24.4062 N   0  0  0  0  0  0  0  0  0  0  0  0
  -16.5048   33.5892  -25.0985 C   0  0  0  0  0  0  0  0  0  0  0  0
  -16.3624   34.8046  -24.5756 C   0  0  0  0  0  0  0  0  0  0  0  0
  -16.2428   33.3595  -26.4910 C   0  0  0  0  0  0  0  0  0  0  0  0
  -15.7854   34.5653  -27.1279 C   0  0  0  0  0  0  0  0  0  0  0  0
  -15.8529   35.8301  -25.2276 C   0  0  0  0  0  0  0  0  0  0  0  0
  -15.5579   35.6950  -26.5818 C   0  0  0  0  0  0  0  0  0  0  0  0
  -18.8145   32.5240  -24.7271 C   0  0  0  0  0  0  0  0  0  0  0  0
  1  2  2  0
  2  3  1  0
  3  4  1  0
  4  5  1  0
  5  6  1  0
  6  7  2  0
  2  8  1  0
  6  9  1  0
  9 10  1  0
 10 11  1  0
 10 12  2  0
 12 13  1  0
 11 14  2  0
 13 15  2  0
 14 15  1  0
  9 16  1  0
M  END
