
     RDKit          3D

 10 10  0  0  0  0  0  0  0  0999 V2000
  -14.2727   27.5908  -22.8471 O   0  0  0  0  0  0  0  0  0  0  0  0
  -15.4200   28.2080  -22.3153 C   0  0  0  0  0  0  0  0  0  0  0  0
  -15.4944   29.5623  -22.4009 C   0  0  0  0  0  0  0  0  0  0  0  0
  -16.6360   30.1273  -23.0446 C   0  0  0  0  0  0  0  0  0  0  0  0
  -17.7622   30.0740  -22.7044 N   0  0  0  0  0  0  0  0  0  0  0  0
  -16.1701   27.6029  -21.4787 O   0  0  0  0  0  0  0  0  0  0  0  0
  -18.8081   30.7184  -23.3789 C   0  0  0  0  0  0  0  0  0  0  0  0
  -16.4078   31.3994  -23.9061 C   0  0  0  0  0  0  0  0  0  0  0  0
  -18.4600   31.7580  -23.9769 C   0  0  0  0  0  0  0  0  0  0  0  0
  -17.3058   32.1860  -24.3328 N   0  0  0  0  0  0  0  0  0  0  0  0
  1  2  2  0
  2  3  1  0
  3  4  1  0
  4  5  2  0
  2  6  1  0
  5  7  1  0
  4  8  1  0
  7  9  2  0
  8 10  2  0
  9 10  1  0
M  END
