
     RDKit          3D

 17 17  0  0  0  0  0  0  0  0999 V2000
  -16.4934   37.8736  -22.5094 O   0  0  0  0  0  0  0  0  0  0  0  0
  -17.3422   37.0857  -21.7022 P   0  0  0  0  0  0  0  0  0  0  0  0
  -17.6929   35.8211  -22.4745 O   0  0  0  0  0  0  0  0  0  0  0  0
  -16.8039   36.6267  -20.3776 O   0  0  0  0  0  0  0  0  0  0  0  0
  -18.6113   37.9897  -21.3920 O   0  0  0  0  0  0  0  0  0  0  0  0
  -18.7266   35.6707  -23.6463 C   0  0  0  0  0  0  0  0  0  0  0  0
  -18.5117   34.4122  -24.2834 C   0  0  0  0  0  0  0  0  0  0  0  0
  -18.1003   34.3231  -25.5239 O   0  0  0  0  0  0  0  0  0  0  0  0
  -16.6866   34.5099  -25.7830 C   0  0  0  0  0  0  0  0  0  0  0  0
  -17.5739   33.4500  -23.4766 O   0  0  0  0  0  0  0  0  0  0  0  0
  -15.8890   34.3311  -24.6906 C   0  0  0  0  0  0  0  0  0  0  0  0
  -16.2905   33.5646  -26.8270 C   0  0  0  0  0  0  0  0  0  0  0  0
  -14.5441   34.2648  -25.0649 O   0  0  0  0  0  0  0  0  0  0  0  0
  -16.3624   32.9722  -24.1525 C   0  0  0  0  0  0  0  0  0  0  0  0
  -16.8790   32.3347  -26.7366 O   0  0  0  0  0  0  0  0  0  0  0  0
  -16.3190   34.0932  -28.2468 C   0  0  0  0  0  0  0  0  0  0  0  0
  -15.4880   33.9404  -28.9084 O   0  0  0  0  0  0  0  0  0  0  0  0
  1  2  2  0
  2  3  1  0
  2  4  1  0
  2  5  1  0
  3  6  1  0
  6  7  1  0
  7  8  1  0
  8  9  1  0
  7 10  1  0
  9 11  1  0
  9 12  1  0
 11 13  1  0
 10 14  1  0
 11 14  1  0
 12 15  1  0
 12 16  1  0
 16 17  1  0
M  END
