
     RDKit          3D

 17 17  0  0  0  0  0  0  0  0999 V2000
  -14.5169   27.6502  -22.7320 O   0  0  0  0  0  0  0  0  0  0  0  0
  -15.3895   28.5159  -22.1766 C   0  0  0  0  0  0  0  0  0  0  0  0
  -16.3575   28.0329  -21.6026 O   0  0  0  0  0  0  0  0  0  0  0  0
  -15.3093   29.9141  -22.4506 C   0  0  0  0  0  0  0  0  0  0  0  0
  -16.6627   30.5622  -22.4231 N   0  0  0  0  0  0  0  0  0  0  0  0
  -16.9544   31.5080  -23.3241 C   0  0  0  0  0  0  0  0  0  0  0  0
  -18.3819   31.8024  -23.4226 C   0  0  0  0  0  0  0  0  0  0  0  0
  -18.6952   32.4251  -24.4501 C   0  0  0  0  0  0  0  0  0  0  0  0
  -19.2854   31.1452  -22.5129 C   0  0  0  0  0  0  0  0  0  0  0  0
  -16.1167   32.3368  -23.9607 C   0  0  0  0  0  0  0  0  0  0  0  0
  -14.7192   32.1564  -23.7932 O   0  0  0  0  0  0  0  0  0  0  0  0
  -19.6552   32.0290  -21.4256 O   0  0  0  0  0  0  0  0  0  0  0  0
  -16.4692   33.3010  -24.9329 C   0  0  0  0  0  0  0  0  0  0  0  0
  -17.7260   33.2130  -25.2594 C   0  0  0  0  0  0  0  0  0  0  0  0
  -18.3739   34.1799  -26.5473 C   0  0  0  0  0  0  0  0  0  0  0  0
  -17.8400   35.3387  -26.4489 O   0  0  0  0  0  0  0  0  0  0  0  0
  -18.0077   33.2272  -27.7119 C   0  0  0  0  0  0  0  0  0  0  0  0
  1  2  2  0
  2  3  1  0
  2  4  1  0
  4  5  1  0
  5  6  1  0
  6  7  1  0
  7  8  2  0
  7  9  1  0
  6 10  2  0
 10 11  1  0
  9 12  2  0
 10 13  1  0
  8 14  1  0
 13 14  2  0
 14 15  1  0
 15 16  1  0
 15 17  1  0
M  END
