
     RDKit          3D

 17 17  0  0  0  0  0  0  0  0999 V2000
  -16.6967   36.5466  -20.6425 O   0  0  0  0  0  0  0  0  0  0  0  0
  -18.0175   36.9312  -20.2882 P   0  0  0  0  0  0  0  0  0  0  0  0
  -19.0091   35.9202  -21.1708 O   0  0  0  0  0  0  0  0  0  0  0  0
  -18.5994   34.6610  -21.7159 C   0  0  0  0  0  0  0  0  0  0  0  0
  -18.3863   38.3973  -20.6354 O   0  0  0  0  0  0  0  0  0  0  0  0
  -18.9407   34.6457  -23.0567 C   0  0  0  0  0  0  0  0  0  0  0  0
  -18.1472   36.5923  -18.8260 O   0  0  0  0  0  0  0  0  0  0  0  0
  -18.0452   33.9009  -23.8012 O   0  0  0  0  0  0  0  0  0  0  0  0
  -18.1421   33.7855  -25.1574 C   0  0  0  0  0  0  0  0  0  0  0  0
  -17.0976   33.0555  -25.6815 C   0  0  0  0  0  0  0  0  0  0  0  0
  -15.9460   33.7144  -25.4024 O   0  0  0  0  0  0  0  0  0  0  0  0
  -19.4682   33.1040  -25.3753 O   0  0  0  0  0  0  0  0  0  0  0  0
  -17.2099   33.0083  -27.1490 C   0  0  0  0  0  0  0  0  0  0  0  0
  -16.8362   31.9115  -27.6403 O   0  0  0  0  0  0  0  0  0  0  0  0
  -19.3161   31.7671  -25.8902 C   0  0  0  0  0  0  0  0  0  0  0  0
  -19.1515   31.6783  -27.2944 O   0  0  0  0  0  0  0  0  0  0  0  0
  -18.6601   32.9469  -27.6987 C   0  0  0  0  0  0  0  0  0  0  0  0
  1  2  2  0
  2  3  1  0
  3  4  1  0
  2  5  1  0
  4  6  1  0
  2  7  1  0
  6  8  1  0
  8  9  1  0
  9 10  1  0
 10 11  1  0
  9 12  1  0
 10 13  1  0
 13 14  1  0
 12 15  1  0
 15 16  1  0
 13 17  1  0
 16 17  1  0
M  END
