
     RDKit          3D

 17 16  0  0  0  0  0  0  0  0999 V2000
  -16.6967   36.5466  -20.6425 O   0  0  0  0  0  0  0  0  0  0  0  0
  -18.0175   36.9312  -20.2882 P   0  0  0  0  0  0  0  0  0  0  0  0
  -18.5563   38.0609  -20.6251 O   0  0  0  0  0  0  0  0  0  0  0  0
  -19.0169   35.7349  -21.0669 O   0  0  0  0  0  0  0  0  0  0  0  0
  -19.3673   34.4950  -20.6700 C   0  0  0  0  0  0  0  0  0  0  0  0
  -18.0099   36.5429  -18.8060 O   0  0  0  0  0  0  0  0  0  0  0  0
  -20.0086   33.7320  -21.7019 C   0  0  0  0  0  0  0  0  0  0  0  0
  -19.3520   32.3968  -21.6953 C   0  0  0  0  0  0  0  0  0  0  0  0
  -19.6261   34.1968  -22.9067 O   0  0  0  0  0  0  0  0  0  0  0  0
  -20.1340   31.3530  -21.3114 O   0  0  0  0  0  0  0  0  0  0  0  0
  -18.2561   32.0710  -22.1981 N   0  0  0  0  0  0  0  0  0  0  0  0
  -17.6657   30.8111  -22.5133 C   0  0  0  0  0  0  0  0  0  0  0  0
  -16.2745   30.8340  -22.6481 C   0  0  0  0  0  0  0  0  0  0  0  0
  -15.7575   31.6347  -23.6612 C   0  0  0  0  0  0  0  0  0  0  0  0
  -15.5812   29.8213  -22.0550 C   0  0  0  0  0  0  0  0  0  0  0  0
  -15.5296   28.5527  -22.6047 C   0  0  0  0  0  0  0  0  0  0  0  0
  -14.9912   27.6420  -22.0101 O   0  0  0  0  0  0  0  0  0  0  0  0
  1  2  1  0
  2  3  2  0
  2  4  1  0
  4  5  1  0
  2  6  1  0
  5  7  1  0
  7  8  1  0
  7  9  1  0
  8 10  2  0
  8 11  1  0
 11 12  1  0
 12 13  1  0
 13 14  1  0
 13 15  1  0
 15 16  1  0
 16 17  2  0
M  END
