
     RDKit          3D

 17 16  0  0  0  0  0  0  0  0999 V2000
  -16.4238   36.3916  -19.7130 O   0  0  0  0  0  0  0  0  0  0  0  0
  -17.7366   36.5587  -20.2410 P   0  0  0  0  0  0  0  0  0  0  0  0
  -18.7090   35.8851  -19.5515 O   0  0  0  0  0  0  0  0  0  0  0  0
  -17.5948   36.0190  -21.7219 O   0  0  0  0  0  0  0  0  0  0  0  0
  -18.0866   38.0370  -20.1865 O   0  0  0  0  0  0  0  0  0  0  0  0
  -17.0604   36.8786  -22.9152 P   0  0  0  0  0  0  0  0  0  0  0  0
  -17.8724   37.8119  -23.2444 O   0  0  0  0  0  0  0  0  0  0  0  0
  -16.8959   35.8710  -24.0771 O   0  0  0  0  0  0  0  0  0  0  0  0
  -17.6739   35.3039  -25.0499 C   0  0  0  0  0  0  0  0  0  0  0  0
  -15.7250   37.1461  -22.2871 O   0  0  0  0  0  0  0  0  0  0  0  0
  -16.9189   34.3283  -25.8598 C   0  0  0  0  0  0  0  0  0  0  0  0
  -16.8998   33.1180  -25.4731 C   0  0  0  0  0  0  0  0  0  0  0  0
  -17.3620   34.3922  -27.2870 C   0  0  0  0  0  0  0  0  0  0  0  0
  -15.4105   34.5873  -25.7297 O   0  0  0  0  0  0  0  0  0  0  0  0
  -17.9946   32.4711  -25.1911 O   0  0  0  0  0  0  0  0  0  0  0  0
  -16.3103   33.9552  -28.1310 O   0  0  0  0  0  0  0  0  0  0  0  0
  -15.8400   32.3370  -25.2322 O   0  0  0  0  0  0  0  0  0  0  0  0
  1  2  1  0
  2  3  2  0
  2  4  1  0
  2  5  1  0
  4  6  1  0
  6  7  2  0
  6  8  1  0
  8  9  1  0
  6 10  1  0
  9 11  1  0
 11 12  1  0
 11 13  1  0
 11 14  1  0
 12 15  2  0
 13 16  1  0
 12 17  1  0
M  END
