
     RDKit          3D

 18 19  0  0  0  0  0  0  0  0999 V2000
  -17.1256   36.2981  -19.6745 O   0  0  0  0  0  0  0  0  0  0  0  0
  -17.6138   36.6248  -20.8820 P   0  0  0  0  0  0  0  0  0  0  0  0
  -17.5240   35.4941  -21.8934 O   0  0  0  0  0  0  0  0  0  0  0  0
  -16.9578   37.7808  -21.6293 O   0  0  0  0  0  0  0  0  0  0  0  0
  -17.1618   35.4569  -23.3523 C   0  0  0  0  0  0  0  0  0  0  0  0
  -17.9936   34.7688  -24.1731 C   0  0  0  0  0  0  0  0  0  0  0  0
  -17.2678   34.0426  -25.1523 C   0  0  0  0  0  0  0  0  0  0  0  0
  -18.6926   33.5794  -23.4376 O   0  0  0  0  0  0  0  0  0  0  0  0
  -18.1837   32.3168  -23.6857 C   0  0  0  0  0  0  0  0  0  0  0  0
  -16.0520   34.7242  -25.4392 C   0  0  0  0  0  0  0  0  0  0  0  0
  -17.0252   32.5825  -24.6200 C   0  0  0  0  0  0  0  0  0  0  0  0
  -18.5613   31.2110  -23.1897 C   0  0  0  0  0  0  0  0  0  0  0  0
  -18.2010   30.2133  -23.5541 O   0  0  0  0  0  0  0  0  0  0  0  0
  -16.0500   35.3046  -26.6251 O   0  0  0  0  0  0  0  0  0  0  0  0
  -19.1121   37.0031  -20.5320 O   0  0  0  0  0  0  0  0  0  0  0  0
  -19.2787   31.2665  -22.0411 O   0  0  0  0  0  0  0  0  0  0  0  0
  -16.5546   34.7668  -27.7688 C   0  0  0  0  0  0  0  0  0  0  0  0
  -16.1512   35.4825  -24.0725 C   0  0  0  0  0  0  0  0  0  0  0  0
  1  2  1  0
  2  3  1  0
  2  4  2  0
  3  5  1  0
  5  6  1  0
  6  7  1  0
  6  8  1  0
  8  9  1  0
  7 10  1  0
  7 11  1  0
  9 11  1  0
  9 12  1  0
 12 13  2  0
 10 14  1  0
  2 15  1  0
 12 16  1  0
 14 17  1  0
  5 18  2  0
 10 18  1  0
M  END
