
     RDKit          3D

  5  4  0  0  0  0  0  0  0  0999 V2000
  -12.4489   26.9755  -22.1841 C   0  0  0  0  0  0  0  0  0  0  0  0
  -11.8525   26.5576  -21.1440 C   0  0  0  0  0  0  0  0  0  0  0  0
  -10.5589   27.0498  -20.8805 C   0  0  0  0  0  0  0  0  0  0  0  0
  -11.9546   27.7776  -22.9997 O   0  0  0  0  0  0  0  0  0  0  0  0
  -13.8015   27.0676  -21.9770 O   0  0  0  0  0  0  0  0  0  0  0  0
  1  2  1  0
  2  3  1  0
  1  4  2  0
  1  5  1  0
M  END
