
     RDKit          3D

 20 19  0  0  0  0  0  0  0  0999 V2000
  -20.8008   33.6919  -21.1511 O   0  0  0  0  0  0  0  0  0  0  0  0
  -19.5861   33.1068  -20.7937 P   0  0  0  0  0  0  0  0  0  0  0  0
  -18.6775   33.2050  -22.0237 O   0  0  0  0  0  0  0  0  0  0  0  0
  -18.4620   32.0706  -23.0649 C   0  0  0  0  0  0  0  0  0  0  0  0
  -19.7542   31.6580  -20.3892 O   0  0  0  0  0  0  0  0  0  0  0  0
  -17.1765   32.0931  -23.7532 C   0  0  0  0  0  0  0  0  0  0  0  0
  -16.3838   31.0216  -23.5697 O   0  0  0  0  0  0  0  0  0  0  0  0
  -18.8290   33.8231  -19.7669 O   0  0  0  0  0  0  0  0  0  0  0  0
  -16.0938   30.5598  -22.2841 C   0  0  0  0  0  0  0  0  0  0  0  0
  -15.4701   29.1963  -22.2405 C   0  0  0  0  0  0  0  0  0  0  0  0
  -16.7553   32.9634  -24.7292 C   0  0  0  0  0  0  0  0  0  0  0  0
  -15.9305   28.1111  -21.8337 O   0  0  0  0  0  0  0  0  0  0  0  0
  -16.5473   34.2739  -24.5876 C   0  0  0  0  0  0  0  0  0  0  0  0
  -17.2770   35.1279  -24.2533 O   0  0  0  0  0  0  0  0  0  0  0  0
  -15.2718   34.6768  -25.0158 O   0  0  0  0  0  0  0  0  0  0  0  0
  -17.1288   36.5796  -24.2634 C   0  0  0  0  0  0  0  0  0  0  0  0
  -16.5824   32.3428  -26.0735 O   0  0  0  0  0  0  0  0  0  0  0  0
  -18.1794   37.0724  -25.1670 C   0  0  0  0  0  0  0  0  0  0  0  0
  -19.2511   37.6411  -24.6265 C   0  0  0  0  0  0  0  0  0  0  0  0
  -18.0686   36.9177  -26.4739 O   0  0  0  0  0  0  0  0  0  0  0  0
  1  2  2  0
  2  3  1  0
  3  4  1  0
  2  5  1  0
  4  6  1  0
  6  7  1  0
  2  8  1  0
  7  9  1  0
  9 10  1  0
  6 11  2  3
 10 12  1  0
 11 13  1  0
 13 14  1  0
 13 15  2  0
 14 16  1  0
 11 17  1  0
 16 18  1  0
 18 19  1  0
 18 20  2  0
M  END
