
     RDKit          3D

 20 20  0  0  0  0  0  0  0  0999 V2000
  -13.7363   27.4625  -22.5818 O   0  0  0  0  0  0  0  0  0  0  0  0
  -15.0199   27.7322  -22.1431 C   0  0  0  0  0  0  0  0  0  0  0  0
  -15.8972   27.0021  -21.8473 N   0  0  0  0  0  0  0  0  0  0  0  0
  -15.2701   29.2671  -22.1955 C   0  0  0  0  0  0  0  0  0  0  0  0
  -16.4411   29.7616  -21.8758 C   0  0  0  0  0  0  0  0  0  0  0  0
  -14.3857   30.1369  -22.9051 C   0  0  0  0  0  0  0  0  0  0  0  0
  -16.3995   31.1892  -22.3777 N   0  0  0  0  0  0  0  0  0  0  0  0
  -15.1657   31.3410  -22.9759 C   0  0  0  0  0  0  0  0  0  0  0  0
  -17.6112   31.9789  -22.4960 C   0  0  0  0  0  0  0  0  0  0  0  0
  -18.3463   32.1657  -23.5446 C   0  0  0  0  0  0  0  0  0  0  0  0
  -18.7774   31.1473  -24.0653 O   0  0  0  0  0  0  0  0  0  0  0  0
  -18.8280   33.3450  -23.7626 O   0  0  0  0  0  0  0  0  0  0  0  0
  -17.9004   32.5618  -21.1956 O   0  0  0  0  0  0  0  0  0  0  0  0
  -18.0222   34.4953  -23.8414 C   0  0  0  0  0  0  0  0  0  0  0  0
  -17.1160   34.2907  -24.8250 C   0  0  0  0  0  0  0  0  0  0  0  0
  -17.5640   34.3623  -26.1464 N   0  0  0  0  0  0  0  0  0  0  0  0
  -17.2846   35.4276  -26.9387 C   0  0  0  0  0  0  0  0  0  0  0  0
  -17.7493   36.4946  -26.6445 O   0  0  0  0  0  0  0  0  0  0  0  0
  -17.5916   34.8669  -22.5346 O   0  0  0  0  0  0  0  0  0  0  0  0
  -16.7842   35.1498  -28.2939 C   0  0  0  0  0  0  0  0  0  0  0  0
  1  2  2  0
  2  3  1  0
  2  4  1  0
  4  5  2  0
  4  6  1  0
  5  7  1  0
  6  8  2  0
  7  8  1  0
  7  9  1  0
  9 10  1  0
 10 11  2  0
 10 12  1  0
  9 13  2  0
 12 14  1  0
 14 15  1  0
 15 16  1  0
 16 17  1  0
 17 18  2  0
 14 19  1  0
 17 20  1  0
M  END
