
     RDKit          3D

 20 20  0  0  0  0  0  0  0  0999 V2000
  -14.1334   27.4720  -22.9160 O   0  0  0  0  0  0  0  0  0  0  0  0
  -15.3526   27.8256  -22.1240 C   0  0  0  0  0  0  0  0  0  0  0  0
  -15.5737   29.2193  -22.0840 N   0  0  0  0  0  0  0  0  0  0  0  0
  -14.8999   30.1959  -22.6922 C   0  0  0  0  0  0  0  0  0  0  0  0
  -15.8609   31.1350  -23.3443 C   0  0  0  0  0  0  0  0  0  0  0  0
  -15.9437   27.0634  -21.2751 N   0  0  0  0  0  0  0  0  0  0  0  0
  -17.2715   31.1782  -23.0337 C   0  0  0  0  0  0  0  0  0  0  0  0
  -18.0856   32.1651  -23.6033 N   0  0  0  0  0  0  0  0  0  0  0  0
  -18.7229   33.0255  -22.8739 C   0  0  0  0  0  0  0  0  0  0  0  0
  -18.7785   34.3489  -23.1861 C   0  0  0  0  0  0  0  0  0  0  0  0
  -19.7786   32.7527  -21.7487 C   0  0  0  0  0  0  0  0  0  0  0  0
  -17.7062   30.2633  -22.2786 O   0  0  0  0  0  0  0  0  0  0  0  0
  -17.9083   34.7889  -24.3830 C   0  0  0  0  0  0  0  0  0  0  0  0
  -19.8493   31.5523  -21.0471 O   0  0  0  0  0  0  0  0  0  0  0  0
  -18.4823   35.3993  -25.2049 O   0  0  0  0  0  0  0  0  0  0  0  0
  -19.2680   35.3427  -22.2005 C   0  0  0  0  0  0  0  0  0  0  0  0
  -16.6448   34.1922  -24.4756 O   0  0  0  0  0  0  0  0  0  0  0  0
  -15.6102   35.1466  -24.8878 C   0  0  0  0  0  0  0  0  0  0  0  0
  -20.1210   35.0491  -21.2747 C   0  0  0  0  0  0  0  0  0  0  0  0
  -20.2899   33.6820  -20.8696 N   0  0  0  0  0  0  0  0  0  0  0  0
  1  2  2  0
  2  3  1  0
  3  4  1  0
  4  5  1  0
  2  6  1  0
  5  7  1  0
  7  8  1  0
  8  9  1  0
  9 10  2  0
  9 11  1  0
  7 12  2  0
 10 13  1  0
 11 14  2  0
 13 15  2  0
 10 16  1  0
 13 17  1  0
 17 18  1  0
 16 19  2  0
 11 20  1  0
 19 20  1  0
M  END
