
     RDKit          3D

 20 19  0  0  0  0  0  0  0  0999 V2000
  -14.4146   27.5212  -22.6366 O   0  0  0  0  0  0  0  0  0  0  0  0
  -15.5368   28.0451  -21.9218 C   0  0  0  0  0  0  0  0  0  0  0  0
  -16.4164   27.4151  -21.5085 O   0  0  0  0  0  0  0  0  0  0  0  0
  -15.6375   29.5562  -21.9357 C   0  0  0  0  0  0  0  0  0  0  0  0
  -14.8208   30.2491  -22.7406 C   0  0  0  0  0  0  0  0  0  0  0  0
  -13.8620   30.1459  -23.2654 O   0  0  0  0  0  0  0  0  0  0  0  0
  -15.6702   31.4128  -23.3675 N   0  0  0  0  0  0  0  0  0  0  0  0
  -16.8814   31.6710  -23.3585 C   0  0  0  0  0  0  0  0  0  0  0  0
  -17.2769   32.8410  -24.1326 C   0  0  0  0  0  0  0  0  0  0  0  0
  -17.7999   30.8754  -22.7890 O   0  0  0  0  0  0  0  0  0  0  0  0
  -17.0635   32.9643  -25.3418 C   0  0  0  0  0  0  0  0  0  0  0  0
  -18.7515   33.0686  -23.7137 O   0  0  0  0  0  0  0  0  0  0  0  0
  -17.1352   34.2855  -25.9826 C   0  0  0  0  0  0  0  0  0  0  0  0
  -17.9702   32.1285  -26.2653 C   0  0  0  0  0  0  0  0  0  0  0  0
  -19.1334   34.1914  -22.8628 C   0  0  0  0  0  0  0  0  0  0  0  0
  -19.5743   33.8715  -21.6408 C   0  0  0  0  0  0  0  0  0  0  0  0
  -18.8598   33.8991  -20.5124 O   0  0  0  0  0  0  0  0  0  0  0  0
  -20.7035   33.3056  -21.4245 O   0  0  0  0  0  0  0  0  0  0  0  0
  -16.6823   34.3214  -27.2933 C   0  0  0  0  0  0  0  0  0  0  0  0
  -16.1941   35.2295  -25.1540 C   0  0  0  0  0  0  0  0  0  0  0  0
  1  2  2  0
  2  3  1  0
  2  4  1  0
  4  5  1  0
  5  6  2  0
  5  7  1  0
  7  8  1  0
  8  9  1  0
  8 10  2  0
  9 11  1  0
  9 12  1  0
 11 13  1  0
 11 14  1  0
 12 15  1  0
 15 16  1  0
 16 17  1  0
 16 18  2  0
 13 19  1  0
 13 20  1  0
M  END
