
     RDKit          3D

  5  4  0  0  0  0  0  0  0  0999 V2000
  -14.2642   34.7674  -34.6145 C   0  0  0  0  0  0  0  0  0  0  0  0
  -13.3035   34.1702  -33.9836 C   0  0  0  0  0  0  0  0  0  0  0  0
  -13.6612   33.4796  -32.8600 C   0  0  0  0  0  0  0  0  0  0  0  0
  -12.6809   33.0087  -32.0325 N   0  0  0  0  0  0  0  0  0  0  0  0
  -11.7837   33.8840  -31.5729 C   0  0  0  0  0  0  0  0  0  0  0  0
  1  2  1  0
  2  3  1  0
  3  4  1  0
  4  5  1  0
M  END
