
     RDKit          3D

 20 20  0  0  0  0  0  0  0  0999 V2000
  -20.8008   33.6919  -21.1511 O   0  0  0  0  0  0  0  0  0  0  0  0
  -19.5861   33.1068  -20.7937 P   0  0  0  0  0  0  0  0  0  0  0  0
  -18.6775   33.2050  -22.0237 O   0  0  0  0  0  0  0  0  0  0  0  0
  -18.1558   31.9411  -22.7871 C   0  0  0  0  0  0  0  0  0  0  0  0
  -18.8680   33.8305  -19.6952 O   0  0  0  0  0  0  0  0  0  0  0  0
  -17.3966   32.1150  -23.8378 C   0  0  0  0  0  0  0  0  0  0  0  0
  -17.9322   32.6613  -24.8582 N   0  0  0  0  0  0  0  0  0  0  0  0
  -19.7404   31.7152  -20.2666 O   0  0  0  0  0  0  0  0  0  0  0  0
  -17.3403   33.7590  -25.5935 C   0  0  0  0  0  0  0  0  0  0  0  0
  -19.2285   32.1736  -25.4131 C   0  0  0  0  0  0  0  0  0  0  0  0
  -16.6468   30.8879  -24.0936 O   0  0  0  0  0  0  0  0  0  0  0  0
  -15.5459   30.7920  -23.3781 C   0  0  0  0  0  0  0  0  0  0  0  0
  -20.0644   33.1513  -25.8940 O   0  0  0  0  0  0  0  0  0  0  0  0
  -17.8252   34.1782  -26.8353 C   0  0  0  0  0  0  0  0  0  0  0  0
  -16.3441   34.4742  -25.2454 O   0  0  0  0  0  0  0  0  0  0  0  0
  -17.2644   33.8044  -27.8741 O   0  0  0  0  0  0  0  0  0  0  0  0
  -15.5654   29.5167  -22.5129 C   0  0  0  0  0  0  0  0  0  0  0  0
  -15.0818   28.4389  -22.8944 O   0  0  0  0  0  0  0  0  0  0  0  0
  -19.3150   33.7337  -27.0912 C   0  0  0  0  0  0  0  0  0  0  0  0
  -16.1074   29.6570  -21.3039 O   0  0  0  0  0  0  0  0  0  0  0  0
  1  2  2  0
  2  3  1  0
  3  4  1  0
  2  5  1  0
  4  6  1  0
  6  7  1  0
  2  8  1  0
  7  9  1  0
  7 10  1  0
  6 11  1  0
 11 12  1  0
 10 13  1  0
  9 14  1  0
  9 15  2  0
 14 16  2  0
 12 17  1  0
 17 18  2  0
 13 19  1  0
 14 19  1  0
 17 20  1  0
M  END
