
     RDKit          3D

 20 20  0  0  0  0  0  0  0  0999 V2000
  -14.1334   27.4720  -22.9160 O   0  0  0  0  0  0  0  0  0  0  0  0
  -15.2171   27.8524  -21.9842 C   0  0  0  0  0  0  0  0  0  0  0  0
  -15.5782   29.2000  -22.0555 N   0  0  0  0  0  0  0  0  0  0  0  0
  -16.1161   27.0658  -21.4141 N   0  0  0  0  0  0  0  0  0  0  0  0
  -14.9419   30.2477  -22.6256 C   0  0  0  0  0  0  0  0  0  0  0  0
  -15.8755   31.2440  -23.2064 C   0  0  0  0  0  0  0  0  0  0  0  0
  -17.2579   31.2431  -22.9227 C   0  0  0  0  0  0  0  0  0  0  0  0
  -18.0700   32.2357  -23.4754 N   0  0  0  0  0  0  0  0  0  0  0  0
  -18.8106   33.0128  -22.6360 C   0  0  0  0  0  0  0  0  0  0  0  0
  -18.6731   31.9021  -24.8418 C   0  0  0  0  0  0  0  0  0  0  0  0
  -18.6500   34.3698  -22.8547 C   0  0  0  0  0  0  0  0  0  0  0  0
  -19.5111   32.5495  -21.4923 C   0  0  0  0  0  0  0  0  0  0  0  0
  -19.6512   31.2510  -21.0831 O   0  0  0  0  0  0  0  0  0  0  0  0
  -20.1672   33.4670  -20.6064 C   0  0  0  0  0  0  0  0  0  0  0  0
  -18.0149   34.8610  -24.0913 C   0  0  0  0  0  0  0  0  0  0  0  0
  -16.6121   35.1276  -23.9121 O   0  0  0  0  0  0  0  0  0  0  0  0
  -19.3524   35.3089  -22.0705 C   0  0  0  0  0  0  0  0  0  0  0  0
  -20.8418   33.1444  -19.5858 O   0  0  0  0  0  0  0  0  0  0  0  0
  -19.9999   34.8749  -20.9545 C   0  0  0  0  0  0  0  0  0  0  0  0
  -18.5863   35.6362  -24.9830 O   0  0  0  0  0  0  0  0  0  0  0  0
  1  2  2  0
  2  3  1  0
  2  4  1  0
  3  5  1  0
  5  6  1  0
  6  7  1  0
  7  8  1  0
  8  9  1  0
  8 10  1  0
  9 11  1  0
  9 12  2  0
 12 13  1  0
 12 14  1  0
 11 15  1  0
 15 16  1  0
 11 17  2  0
 14 18  1  0
 14 19  2  0
 17 19  1  0
 15 20  2  0
M  END
