
     RDKit          3D

  5  4  0  0  0  0  0  0  0  0999 V2000
  -14.1045   34.7436  -34.6087 C   0  0  0  0  0  0  0  0  0  0  0  0
  -13.2239   34.4389  -34.4474 C   0  0  0  0  0  0  0  0  0  0  0  0
  -12.0058   34.1189  -33.8811 C   0  0  0  0  0  0  0  0  0  0  0  0
  -12.2652   33.9444  -32.4834 C   0  0  0  0  0  0  0  0  0  0  0  0
  -13.5077   33.2869  -31.9505 C   0  0  0  0  0  0  0  0  0  0  0  0
  1  2  3  0
  2  3  1  0
  3  4  1  0
  4  5  1  0
M  END
