
     RDKit          3D

  6  5  0  0  0  0  0  0  0  0999 V2000
  -14.2379   27.3191  -22.2686 O   0  0  0  0  0  0  0  0  0  0  0  0
  -15.3668   28.0844  -22.1387 C   0  0  0  0  0  0  0  0  0  0  0  0
  -15.2210   29.4693  -22.3607 C   0  0  0  0  0  0  0  0  0  0  0  0
  -14.2904   30.0364  -23.0242 O   0  0  0  0  0  0  0  0  0  0  0  0
  -16.5293   27.6016  -22.2287 O   0  0  0  0  0  0  0  0  0  0  0  0
  -16.0412   30.2934  -21.5172 N   0  0  0  0  0  0  0  0  0  0  0  0
  1  2  2  0
  2  3  1  0
  3  4  2  0
  2  5  1  0
  3  6  1  0
M  END
