
     RDKit          3D

  7  7  0  0  0  0  0  0  0  0999 V2000
  -13.4021   34.7446  -34.4816 Cl  0  0  0  0  0  0  0  0  0  0  0  0
  -13.5386   33.6704  -33.1312 C   0  0  0  0  0  0  0  0  0  0  0  0
  -12.3638   33.4678  -32.5282 C   0  0  0  0  0  0  0  0  0  0  0  0
  -12.3921   32.7924  -31.2883 C   0  0  0  0  0  0  0  0  0  0  0  0
  -13.5394   32.6088  -30.6650 C   0  0  0  0  0  0  0  0  0  0  0  0
  -14.7005   32.9989  -31.2788 C   0  0  0  0  0  0  0  0  0  0  0  0
  -14.7347   33.6795  -32.4229 C   0  0  0  0  0  0  0  0  0  0  0  0
  1  2  1  0
  2  3  2  0
  3  4  1  0
  4  5  2  0
  5  6  1  0
  2  7  1  0
  6  7  2  0
M  END
