
     RDKit          3D

  7  6  0  0  0  0  0  0  0  0999 V2000
  -14.1045   34.7436  -34.6087 C   0  0  0  0  0  0  0  0  0  0  0  0
  -13.2600   34.0210  -33.9546 C   0  0  0  0  0  0  0  0  0  0  0  0
  -12.3043   33.5341  -33.1515 C   0  0  0  0  0  0  0  0  0  0  0  0
  -13.0061   33.0568  -32.0722 C   0  0  0  0  0  0  0  0  0  0  0  0
  -12.4302   33.1451  -30.8660 C   0  0  0  0  0  0  0  0  0  0  0  0
  -11.4393   33.9506  -30.7961 C   0  0  0  0  0  0  0  0  0  0  0  0
  -11.0294   34.5151  -29.7962 C   0  0  0  0  0  0  0  0  0  0  0  0
  1  2  3  0
  2  3  1  0
  3  4  1  0
  4  5  1  0
  5  6  1  0
  6  7  2  0
M  END
