
     RDKit          3D

  7  6  0  0  0  0  0  0  0  0999 V2000
  -11.7079   26.6909  -21.2040 C   0  0  0  0  0  0  0  0  0  0  0  0
  -12.7683   26.7447  -21.7581 C   0  0  0  0  0  0  0  0  0  0  0  0
  -10.8940   26.2871  -20.7922 N   0  0  0  0  0  0  0  0  0  0  0  0
  -13.8351   26.8769  -21.5383 C   0  0  0  0  0  0  0  0  0  0  0  0
  -14.6537   27.9611  -22.0935 C   0  0  0  0  0  0  0  0  0  0  0  0
  -15.8472   28.2946  -21.5706 O   0  0  0  0  0  0  0  0  0  0  0  0
  -14.0608   29.0371  -22.5100 O   0  0  0  0  0  0  0  0  0  0  0  0
  1  2  1  0
  1  3  3  0
  2  4  1  0
  4  5  1  0
  5  6  1  0
  5  7  2  0
M  END
