
     RDKit          3D

  3  2  0  0  0  0  0  0  0  0999 V2000
  -12.7563   27.0456  -21.8356 O   0  0  0  0  0  0  0  0  0  0  0  0
  -12.0587   26.6478  -21.1576 C   0  0  0  0  0  0  0  0  0  0  0  0
  -10.7551   27.1097  -21.0532 O   0  0  0  0  0  0  0  0  0  0  0  0
  1  2  2  0
  2  3  1  0
M  END
