
     RDKit          3D

  8  8  0  0  0  0  0  0  0  0999 V2000
  -13.4021   34.7446  -34.4816 Cl  0  0  0  0  0  0  0  0  0  0  0  0
  -13.2673   34.1624  -33.0585 C   0  0  0  0  0  0  0  0  0  0  0  0
  -14.3179   33.3570  -32.5735 C   0  0  0  0  0  0  0  0  0  0  0  0
  -14.4254   32.8648  -31.6807 C   0  0  0  0  0  0  0  0  0  0  0  0
  -13.4778   32.6078  -30.9239 C   0  0  0  0  0  0  0  0  0  0  0  0
  -12.1230   34.1665  -32.2649 C   0  0  0  0  0  0  0  0  0  0  0  0
  -11.0426   34.8256  -32.5954 F   0  0  0  0  0  0  0  0  0  0  0  0
  -12.2013   33.3872  -31.1142 C   0  0  0  0  0  0  0  0  0  0  0  0
  1  2  1  0
  2  3  1  0
  3  4  2  0
  4  5  1  0
  2  6  2  0
  6  7  1  0
  5  8  2  0
  6  8  1  0
M  END
