
     RDKit          3D

  8  8  0  0  0  0  0  0  0  0999 V2000
  -13.3460   34.3408  -34.1869 Cl  0  0  0  0  0  0  0  0  0  0  0  0
  -13.7746   33.5204  -32.7475 C   0  0  0  0  0  0  0  0  0  0  0  0
  -14.6741   33.1149  -32.3830 C   0  0  0  0  0  0  0  0  0  0  0  0
  -12.3963   32.9390  -32.4225 C   0  0  0  0  0  0  0  0  0  0  0  0
  -11.2005   33.2513  -32.8986 C   0  0  0  0  0  0  0  0  0  0  0  0
  -12.6946   32.6427  -31.0441 C   0  0  0  0  0  0  0  0  0  0  0  0
  -14.5699   32.7237  -31.3886 C   0  0  0  0  0  0  0  0  0  0  0  0
  -13.6952   32.3573  -30.5173 C   0  0  0  0  0  0  0  0  0  0  0  0
  1  2  1  0
  2  3  1  0
  2  4  2  0
  4  5  1  0
  4  6  1  0
  3  7  1  0
  6  8  1  0
  7  8  2  0
M  END
