
     RDKit          3D

  8  7  0  0  0  0  0  0  0  0999 V2000
  -12.1238   26.9480  -21.1749 C   0  0  0  0  0  0  0  0  0  0  0  0
  -13.1904   26.9714  -21.7167 C   0  0  0  0  0  0  0  0  0  0  0  0
  -13.4883   27.1251  -22.8884 O   0  0  0  0  0  0  0  0  0  0  0  0
  -11.2979   25.9585  -21.4738 C   0  0  0  0  0  0  0  0  0  0  0  0
  -14.4136   27.0016  -20.9684 C   0  0  0  0  0  0  0  0  0  0  0  0
  -15.6085   27.7408  -21.6216 C   0  0  0  0  0  0  0  0  0  0  0  0
  -16.6596   27.0907  -21.8944 O   0  0  0  0  0  0  0  0  0  0  0  0
  -15.6669   29.0905  -21.5526 O   0  0  0  0  0  0  0  0  0  0  0  0
  1  2  1  0
  2  3  2  0
  1  4  1  0
  2  5  1  0
  5  6  1  0
  6  7  2  0
  6  8  1  0
M  END
