
     RDKit          3D

  8  8  0  0  0  0  0  0  0  0999 V2000
  -13.8243   27.3438  -22.5774 O   0  0  0  0  0  0  0  0  0  0  0  0
  -14.7789   27.3864  -21.7237 C   0  0  0  0  0  0  0  0  0  0  0  0
  -15.6556   28.5994  -22.0296 C   0  0  0  0  0  0  0  0  0  0  0  0
  -14.9879   26.8163  -20.7631 O   0  0  0  0  0  0  0  0  0  0  0  0
  -16.8778   28.5559  -22.1057 C   0  0  0  0  0  0  0  0  0  0  0  0
  -15.1327   30.0162  -21.9894 C   0  0  0  0  0  0  0  0  0  0  0  0
  -15.9990   30.8218  -22.3883 C   0  0  0  0  0  0  0  0  0  0  0  0
  -17.5046   29.8493  -22.5562 S   0  0  0  0  0  0  0  0  0  0  0  0
  1  2  2  0
  2  3  1  0
  2  4  1  0
  3  5  2  0
  3  6  1  0
  6  7  2  0
  5  8  1  0
  7  8  1  0
M  END
