
     RDKit          3D

  8  8  0  0  0  0  0  0  0  0999 V2000
  -13.4021   34.7446  -34.4816 Cl  0  0  0  0  0  0  0  0  0  0  0  0
  -13.5386   33.6704  -33.1312 C   0  0  0  0  0  0  0  0  0  0  0  0
  -14.4878   33.2567  -32.6057 C   0  0  0  0  0  0  0  0  0  0  0  0
  -14.6293   32.5542  -31.5851 C   0  0  0  0  0  0  0  0  0  0  0  0
  -13.5056   32.0907  -30.9773 C   0  0  0  0  0  0  0  0  0  0  0  0
  -12.1369   33.3031  -32.4034 C   0  0  0  0  0  0  0  0  0  0  0  0
  -13.6659   31.3205  -29.8256 F   0  0  0  0  0  0  0  0  0  0  0  0
  -12.2045   32.5098  -31.2895 C   0  0  0  0  0  0  0  0  0  0  0  0
  1  2  1  0
  2  3  2  0
  3  4  1  0
  4  5  2  0
  2  6  1  0
  5  7  1  0
  5  8  1  0
  6  8  2  0
M  END
