
     RDKit          3D

  8  8  0  0  0  0  0  0  0  0999 V2000
  -13.3460   34.3408  -34.1869 Cl  0  0  0  0  0  0  0  0  0  0  0  0
  -13.7746   33.5204  -32.7475 C   0  0  0  0  0  0  0  0  0  0  0  0
  -14.6741   33.1149  -32.3830 C   0  0  0  0  0  0  0  0  0  0  0  0
  -12.3963   32.9390  -32.4225 C   0  0  0  0  0  0  0  0  0  0  0  0
  -11.2005   33.2513  -32.8986 C   0  0  0  0  0  0  0  0  0  0  0  0
  -12.8356   32.0118  -31.4091 C   0  0  0  0  0  0  0  0  0  0  0  0
  -14.4563   32.5374  -31.4051 C   0  0  0  0  0  0  0  0  0  0  0  0
  -13.7991   31.8884  -30.7034 C   0  0  0  0  0  0  0  0  0  0  0  0
  1  2  1  0
  2  3  1  0
  2  4  2  0
  4  5  1  0
  4  6  1  0
  3  7  2  0
  6  8  2  0
  7  8  1  0
M  END
