
     RDKit          3D

 13 12  0  0  0  0  0  0  0  0999 V2000
  -16.1614   36.7084  -20.7932 O   0  0  0  0  0  0  0  0  0  0  0  0
  -17.2070   36.5498  -21.8653 P   0  0  0  0  0  0  0  0  0  0  0  0
  -16.6452   36.8889  -23.1772 O   0  0  0  0  0  0  0  0  0  0  0  0
  -18.5245   37.3827  -21.6028 O   0  0  0  0  0  0  0  0  0  0  0  0
  -17.6163   35.0103  -22.0109 O   0  0  0  0  0  0  0  0  0  0  0  0
  -18.9813   34.4441  -22.0549 P   0  0  0  0  0  0  0  0  0  0  0  0
  -18.9754   33.1087  -21.5949 O   0  0  0  0  0  0  0  0  0  0  0  0
  -19.5400   34.6913  -23.3229 O   0  0  0  0  0  0  0  0  0  0  0  0
  -19.8612   35.0796  -20.8544 O   0  0  0  0  0  0  0  0  0  0  0  0
  -18.9993   32.1084  -20.2510 P   0  0  0  0  0  0  0  0  0  0  0  0
  -17.7919   31.8716  -19.9205 O   0  0  0  0  0  0  0  0  0  0  0  0
  -20.0189   31.0601  -20.5281 O   0  0  0  0  0  0  0  0  0  0  0  0
  -19.7835   33.1119  -19.2375 O   0  0  0  0  0  0  0  0  0  0  0  0
  1  2  1  0
  2  3  2  0
  2  4  1  0
  2  5  1  0
  5  6  1  0
  6  7  1  0
  6  8  2  0
  6  9  1  0
  7 10  1  0
 10 11  1  0
 10 12  2  0
 10 13  1  0
M  END
