
     RDKit          3D

 13 12  0  0  0  0  0  0  0  0999 V2000
  -20.8261   33.4103  -20.5517 O   0  0  0  0  0  0  0  0  0  0  0  0
  -19.5183   33.0162  -20.5734 P   0  0  0  0  0  0  0  0  0  0  0  0
  -19.3038   32.6534  -22.0398 O   0  0  0  0  0  0  0  0  0  0  0  0
  -18.2238   31.8737  -22.4939 C   0  0  0  0  0  0  0  0  0  0  0  0
  -18.5311   34.1520  -20.3568 O   0  0  0  0  0  0  0  0  0  0  0  0
  -19.2291   31.8034  -19.7488 O   0  0  0  0  0  0  0  0  0  0  0  0
  -18.4452   30.6477  -22.8762 C   0  0  0  0  0  0  0  0  0  0  0  0
  -17.2547   29.7425  -22.8792 N   0  0  0  0  0  0  0  0  0  0  0  0
  -19.4902   30.2192  -23.1043 O   0  0  0  0  0  0  0  0  0  0  0  0
  -15.8996   30.3092  -22.9544 C   0  0  0  0  0  0  0  0  0  0  0  0
  -14.9132   29.2853  -22.4893 C   0  0  0  0  0  0  0  0  0  0  0  0
  -13.8593   29.2554  -23.0044 O   0  0  0  0  0  0  0  0  0  0  0  0
  -15.3346   28.5801  -21.4275 O   0  0  0  0  0  0  0  0  0  0  0  0
  1  2  1  0
  2  3  1  0
  3  4  1  0
  2  5  2  0
  2  6  1  0
  4  7  1  0
  7  8  1  0
  7  9  2  0
  8 10  1  0
 10 11  1  0
 11 12  2  0
 11 13  1  0
M  END
