
     RDKit          3D

 13 13  0  0  0  0  0  0  0  0999 V2000
  -13.7363   27.4625  -22.5818 O   0  0  0  0  0  0  0  0  0  0  0  0
  -14.7905   27.4773  -21.8306 C   0  0  0  0  0  0  0  0  0  0  0  0
  -15.3618   26.7621  -21.1373 O   0  0  0  0  0  0  0  0  0  0  0  0
  -15.5827   28.8312  -22.1554 C   0  0  0  0  0  0  0  0  0  0  0  0
  -16.8918   28.8820  -22.1193 C   0  0  0  0  0  0  0  0  0  0  0  0
  -14.9702   30.1227  -22.1256 O   0  0  0  0  0  0  0  0  0  0  0  0
  -15.9781   30.9329  -22.4373 C   0  0  0  0  0  0  0  0  0  0  0  0
  -17.3819   30.0084  -22.4848 C   0  0  0  0  0  0  0  0  0  0  0  0
  -18.6044   30.5468  -22.7550 C   0  0  0  0  0  0  0  0  0  0  0  0
  -18.7405   31.9278  -22.4005 C   0  0  0  0  0  0  0  0  0  0  0  0
  -19.5729   32.1646  -21.2360 C   0  0  0  0  0  0  0  0  0  0  0  0
  -20.1057   31.3353  -20.6411 O   0  0  0  0  0  0  0  0  0  0  0  0
  -19.5447   33.4720  -20.7386 O   0  0  0  0  0  0  0  0  0  0  0  0
  1  2  2  0
  2  3  1  0
  2  4  1  0
  4  5  2  0
  4  6  1  0
  6  7  1  0
  5  8  1  0
  7  8  2  0
  8  9  1  0
  9 10  1  0
 10 11  1  0
 11 12  1  0
 11 13  1  0
M  END
