
     RDKit          3D

  4  3  0  0  0  0  0  0  0  0999 V2000
  -12.7563   27.0456  -21.8356 O   0  0  0  0  0  0  0  0  0  0  0  0
  -12.0587   26.6478  -21.1576 C   0  0  0  0  0  0  0  0  0  0  0  0
  -11.7930   25.5207  -20.5962 C   0  0  0  0  0  0  0  0  0  0  0  0
  -11.0269   27.7093  -20.9467 N   0  0  0  0  0  0  0  0  0  0  0  0
  1  2  2  0
  2  3  1  0
  2  4  1  0
M  END
