
     RDKit          3D

 13 14  0  0  0  0  0  0  0  0999 V2000
  -13.7363   27.4625  -22.5818 O   0  0  0  0  0  0  0  0  0  0  0  0
  -14.7905   27.4773  -21.8306 C   0  0  0  0  0  0  0  0  0  0  0  0
  -15.3618   26.7621  -21.1373 O   0  0  0  0  0  0  0  0  0  0  0  0
  -15.5827   28.8312  -22.1554 C   0  0  0  0  0  0  0  0  0  0  0  0
  -16.8918   28.8820  -22.1193 C   0  0  0  0  0  0  0  0  0  0  0  0
  -14.9702   30.1227  -22.1256 O   0  0  0  0  0  0  0  0  0  0  0  0
  -15.9574   30.9164  -22.5191 C   0  0  0  0  0  0  0  0  0  0  0  0
  -15.6662   32.1350  -23.1327 C   0  0  0  0  0  0  0  0  0  0  0  0
  -17.1562   30.2041  -22.6068 C   0  0  0  0  0  0  0  0  0  0  0  0
  -18.3480   30.8396  -22.9584 C   0  0  0  0  0  0  0  0  0  0  0  0
  -16.8956   32.8012  -23.5009 N   0  0  0  0  0  0  0  0  0  0  0  0
  -18.1358   32.2638  -23.3485 C   0  0  0  0  0  0  0  0  0  0  0  0
  -14.6617   32.6468  -23.4010 O   0  0  0  0  0  0  0  0  0  0  0  0
  1  2  2  0
  2  3  1  0
  2  4  1  0
  4  5  2  0
  4  6  1  0
  6  7  1  0
  7  8  1  0
  5  9  1  0
  7  9  2  0
  9 10  1  0
  8 11  1  0
 10 12  1  0
 11 12  2  0
  8 13  2  0
M  END
