
     RDKit          3D

 13 12  0  0  0  0  0  0  0  0999 V2000
  -14.1334   27.4720  -22.9160 O   0  0  0  0  0  0  0  0  0  0  0  0
  -15.2171   27.8524  -21.9842 C   0  0  0  0  0  0  0  0  0  0  0  0
  -15.5782   29.2000  -22.0555 C   0  0  0  0  0  0  0  0  0  0  0  0
  -16.0496   27.0985  -21.4597 O   0  0  0  0  0  0  0  0  0  0  0  0
  -16.7730   29.6569  -21.9628 C   0  0  0  0  0  0  0  0  0  0  0  0
  -17.0333   31.0286  -22.4055 C   0  0  0  0  0  0  0  0  0  0  0  0
  -18.4357   31.4536  -22.3386 N   0  0  0  0  0  0  0  0  0  0  0  0
  -16.1706   31.5758  -23.0191 O   0  0  0  0  0  0  0  0  0  0  0  0
  -19.4751   30.8357  -21.8090 O   0  0  0  0  0  0  0  0  0  0  0  0
  -18.6412   32.8223  -22.9425 C   0  0  0  0  0  0  0  0  0  0  0  0
  -18.9677   33.8710  -21.8744 C   0  0  0  0  0  0  0  0  0  0  0  0
  -18.6581   35.1202  -22.2799 O   0  0  0  0  0  0  0  0  0  0  0  0
  -19.7020   33.6054  -20.8609 O   0  0  0  0  0  0  0  0  0  0  0  0
  1  2  2  0
  2  3  1  0
  2  4  1  0
  3  5  1  0
  5  6  1  0
  6  7  1  0
  6  8  2  0
  7  9  1  0
  7 10  1  0
 10 11  1  0
 11 12  2  0
 11 13  1  0
M  END
