
     RDKit          3D

 13 12  0  0  0  0  0  0  0  0999 V2000
  -19.1549   34.3510  -19.7874 O   0  0  0  0  0  0  0  0  0  0  0  0
  -19.4775   33.3353  -20.5774 P   0  0  0  0  0  0  0  0  0  0  0  0
  -19.8292   32.0828  -19.8245 O   0  0  0  0  0  0  0  0  0  0  0  0
  -18.5303   32.8911  -21.7234 O   0  0  0  0  0  0  0  0  0  0  0  0
  -18.5700   33.2556  -22.8845 C   0  0  0  0  0  0  0  0  0  0  0  0
  -17.6649   32.6355  -23.7983 C   0  0  0  0  0  0  0  0  0  0  0  0
  -20.7465   33.7750  -21.3698 O   0  0  0  0  0  0  0  0  0  0  0  0
  -17.3465   31.3307  -23.5436 C   0  0  0  0  0  0  0  0  0  0  0  0
  -17.2458   33.2703  -24.9838 O   0  0  0  0  0  0  0  0  0  0  0  0
  -16.0737   30.9909  -23.1452 O   0  0  0  0  0  0  0  0  0  0  0  0
  -15.6068   29.9936  -22.1867 C   0  0  0  0  0  0  0  0  0  0  0  0
  -15.5170   28.7457  -22.6397 C   0  0  0  0  0  0  0  0  0  0  0  0
  -16.0594   27.7418  -22.2429 O   0  0  0  0  0  0  0  0  0  0  0  0
  1  2  1  0
  2  3  1  0
  2  4  1  0
  4  5  1  0
  5  6  1  0
  2  7  2  0
  6  8  1  0
  6  9  2  0
  8 10  1  0
 10 11  1  0
 11 12  1  0
 12 13  1  0
M  END
