
     RDKit          3D

 13 12  0  0  0  0  0  0  0  0999 V2000
  -19.1549   34.3510  -19.7874 O   0  0  0  0  0  0  0  0  0  0  0  0
  -19.5368   33.6526  -20.8497 P   0  0  0  0  0  0  0  0  0  0  0  0
  -18.4919   32.9925  -21.6507 O   0  0  0  0  0  0  0  0  0  0  0  0
  -20.3897   34.5014  -21.8407 O   0  0  0  0  0  0  0  0  0  0  0  0
  -18.2110   32.5670  -23.0845 C   0  0  0  0  0  0  0  0  0  0  0  0
  -20.4595   32.5057  -20.2970 O   0  0  0  0  0  0  0  0  0  0  0  0
  -17.7019   31.3744  -23.2897 C   0  0  0  0  0  0  0  0  0  0  0  0
  -18.5814   30.4172  -23.3255 O   0  0  0  0  0  0  0  0  0  0  0  0
  -16.4998   31.1162  -23.7334 O   0  0  0  0  0  0  0  0  0  0  0  0
  -15.5775   30.3338  -22.9158 C   0  0  0  0  0  0  0  0  0  0  0  0
  -16.2681   29.1378  -22.3692 C   0  0  0  0  0  0  0  0  0  0  0  0
  -15.3329   28.1451  -21.9709 C   0  0  0  0  0  0  0  0  0  0  0  0
  -14.4248   27.7560  -22.9485 O   0  0  0  0  0  0  0  0  0  0  0  0
  1  2  1  0
  2  3  1  0
  2  4  2  0
  3  5  1  0
  2  6  1  0
  5  7  1  0
  7  8  2  0
  7  9  1  0
  9 10  1  0
 10 11  1  0
 11 12  1  0
 12 13  1  0
M  END
