
     RDKit          3D

 14 14  0  0  0  0  0  0  0  0999 V2000
  -20.1011   32.5347  -20.0066 O   0  0  0  0  0  0  0  0  0  0  0  0
  -19.4908   33.2450  -20.9163 P   0  0  0  0  0  0  0  0  0  0  0  0
  -18.7466   32.2237  -21.8289 O   0  0  0  0  0  0  0  0  0  0  0  0
  -18.5371   32.2342  -23.2760 C   0  0  0  0  0  0  0  0  0  0  0  0
  -18.4540   34.2609  -20.5539 O   0  0  0  0  0  0  0  0  0  0  0  0
  -20.5504   33.8559  -21.8424 O   0  0  0  0  0  0  0  0  0  0  0  0
  -17.5215   31.2644  -23.6892 C   0  0  0  0  0  0  0  0  0  0  0  0
  -16.2793   31.7485  -23.8681 C   0  0  0  0  0  0  0  0  0  0  0  0
  -17.4252   30.1330  -22.5988 O   0  0  0  0  0  0  0  0  0  0  0  0
  -15.2175   30.9216  -23.5975 O   0  0  0  0  0  0  0  0  0  0  0  0
  -16.2178   29.9177  -22.1153 C   0  0  0  0  0  0  0  0  0  0  0  0
  -15.0328   30.1647  -22.7496 C   0  0  0  0  0  0  0  0  0  0  0  0
  -14.1198   29.4764  -22.4317 O   0  0  0  0  0  0  0  0  0  0  0  0
  -16.2453   28.3582  -21.7749 C   0  0  0  0  0  0  0  0  0  0  0  0
  1  2  1  0
  2  3  1  0
  3  4  1  0
  2  5  1  0
  2  6  2  0
  4  7  1  0
  7  8  1  0
  7  9  1  0
  8 10  1  0
  9 11  1  0
 10 12  1  0
 11 12  1  0
 12 13  2  0
 11 14  1  0
M  END
