
     RDKit          3D

 14 14  0  0  0  0  0  0  0  0999 V2000
  -20.8008   33.6919  -21.1511 O   0  0  0  0  0  0  0  0  0  0  0  0
  -19.7287   33.3445  -21.0194 P   0  0  0  0  0  0  0  0  0  0  0  0
  -19.0602   33.0092  -22.3520 O   0  0  0  0  0  0  0  0  0  0  0  0
  -19.6821   32.1281  -19.9972 O   0  0  0  0  0  0  0  0  0  0  0  0
  -18.5862   33.9317  -23.3920 C   0  0  0  0  0  0  0  0  0  0  0  0
  -18.8158   33.6614  -24.6424 C   0  0  0  0  0  0  0  0  0  0  0  0
  -18.7424   34.3843  -20.3695 O   0  0  0  0  0  0  0  0  0  0  0  0
  -17.8269   32.8337  -25.2565 O   0  0  0  0  0  0  0  0  0  0  0  0
  -17.5036   32.9469  -26.5510 C   0  0  0  0  0  0  0  0  0  0  0  0
  -18.8385   34.8605  -25.5741 C   0  0  0  0  0  0  0  0  0  0  0  0
  -16.1214   33.0009  -26.8565 N   0  0  0  0  0  0  0  0  0  0  0  0
  -15.9586   33.5167  -28.1980 C   0  0  0  0  0  0  0  0  0  0  0  0
  -19.8049   35.6073  -25.5826 O   0  0  0  0  0  0  0  0  0  0  0  0
  -18.0358   34.4744  -26.6557 C   0  0  0  0  0  0  0  0  0  0  0  0
  1  2  1  0
  2  3  1  0
  2  4  2  0
  3  5  1  0
  5  6  1  0
  2  7  1  0
  6  8  1  0
  8  9  1  0
  6 10  1  0
  9 11  1  0
 11 12  1  0
 10 13  2  0
  9 14  1  0
 10 14  1  0
M  END
