
     RDKit          3D

 15 15  0  0  0  0  0  0  0  0999 V2000
  -14.1334   27.4720  -22.9160 O   0  0  0  0  0  0  0  0  0  0  0  0
  -15.2171   27.8524  -21.9842 C   0  0  0  0  0  0  0  0  0  0  0  0
  -15.5782   29.2000  -22.0555 C   0  0  0  0  0  0  0  0  0  0  0  0
  -15.7907   27.1171  -21.2494 O   0  0  0  0  0  0  0  0  0  0  0  0
  -14.8392   30.2130  -22.6761 C   0  0  0  0  0  0  0  0  0  0  0  0
  -15.5225   31.5353  -22.9206 C   0  0  0  0  0  0  0  0  0  0  0  0
  -16.6794   31.6831  -22.7604 C   0  0  0  0  0  0  0  0  0  0  0  0
  -14.4284   32.4764  -23.4023 C   0  0  0  0  0  0  0  0  0  0  0  0
  -17.6938   30.8210  -22.2809 C   0  0  0  0  0  0  0  0  0  0  0  0
  -19.0205   31.1197  -22.3145 N   0  0  0  0  0  0  0  0  0  0  0  0
  -13.3489   32.1341  -23.8279 O   0  0  0  0  0  0  0  0  0  0  0  0
  -17.1305   29.4419  -22.0949 C   0  0  0  0  0  0  0  0  0  0  0  0
  -14.7426   33.6909  -23.2428 O   0  0  0  0  0  0  0  0  0  0  0  0
  -19.7195   30.7006  -23.0998 O   0  0  0  0  0  0  0  0  0  0  0  0
  -19.3705   31.5668  -21.1135 O   0  0  0  0  0  0  0  0  0  0  0  0
  1  2  2  0
  2  3  1  0
  2  4  1  0
  3  5  2  0
  5  6  1  0
  6  7  2  0
  6  8  1  0
  7  9  1  0
  9 10  1  0
  8 11  2  0
  3 12  1  0
  9 12  2  0
  8 13  1  0
 10 14  1  0
 10 15  2  0
M  CHG  2  10   1  14  -1
M  END
