
     RDKit          3D

 16 16  0  0  0  0  0  0  0  0999 V2000
  -21.4278   34.1401  -21.0593 O   0  0  0  0  0  0  0  0  0  0  0  0
  -20.1028   33.7614  -20.7909 P   0  0  0  0  0  0  0  0  0  0  0  0
  -19.2905   33.5840  -22.0218 O   0  0  0  0  0  0  0  0  0  0  0  0
  -18.7082   34.7012  -22.8762 C   0  0  0  0  0  0  0  0  0  0  0  0
  -20.1050   32.5606  -19.8165 O   0  0  0  0  0  0  0  0  0  0  0  0
  -19.2139   34.8581  -19.9642 O   0  0  0  0  0  0  0  0  0  0  0  0
  -17.4323   34.6322  -23.2136 C   0  0  0  0  0  0  0  0  0  0  0  0
  -17.1743   33.3221  -24.0019 O   0  0  0  0  0  0  0  0  0  0  0  0
  -16.1393   33.1182  -24.6786 C   0  0  0  0  0  0  0  0  0  0  0  0
  -15.7457   34.1891  -25.4810 C   0  0  0  0  0  0  0  0  0  0  0  0
  -15.9353   35.4785  -24.8811 C   0  0  0  0  0  0  0  0  0  0  0  0
  -14.4669   34.1217  -26.0958 O   0  0  0  0  0  0  0  0  0  0  0  0
  -16.0873   31.7231  -25.0981 O   0  0  0  0  0  0  0  0  0  0  0  0
  -16.0072   36.4814  -25.9640 O   0  0  0  0  0  0  0  0  0  0  0  0
  -17.1972   35.6671  -24.2010 C   0  0  0  0  0  0  0  0  0  0  0  0
  -17.0267   36.8948  -23.3601 O   0  0  0  0  0  0  0  0  0  0  0  0
  1  2  2  0
  2  3  1  0
  3  4  1  0
  2  5  1  0
  2  6  1  0
  4  7  1  0
  7  8  1  0
  8  9  1  0
  9 10  1  0
 10 11  1  0
 10 12  1  0
  9 13  1  0
 11 14  1  0
  7 15  1  0
 11 15  1  0
 15 16  1  0
M  END
