
     RDKit          3D

 16 15  0  0  0  0  0  0  0  0999 V2000
  -14.1334   27.4720  -22.9160 O   0  0  0  0  0  0  0  0  0  0  0  0
  -15.3526   27.8256  -22.1240 C   0  0  0  0  0  0  0  0  0  0  0  0
  -16.1570   27.1152  -21.7381 N   0  0  0  0  0  0  0  0  0  0  0  0
  -15.5929   29.3379  -22.1844 C   0  0  0  0  0  0  0  0  0  0  0  0
  -14.7037   30.2532  -22.7351 C   0  0  0  0  0  0  0  0  0  0  0  0
  -15.3805   31.4945  -23.2438 C   0  0  0  0  0  0  0  0  0  0  0  0
  -16.5604   31.6864  -23.1614 N   0  0  0  0  0  0  0  0  0  0  0  0
  -17.2992   32.6931  -23.8858 C   0  0  0  0  0  0  0  0  0  0  0  0
  -17.3142   32.6477  -25.1270 O   0  0  0  0  0  0  0  0  0  0  0  0
  -17.9941   33.7837  -23.1301 C   0  0  0  0  0  0  0  0  0  0  0  0
  -18.9827   33.5907  -22.3546 O   0  0  0  0  0  0  0  0  0  0  0  0
  -17.3552   34.9585  -23.0915 O   0  0  0  0  0  0  0  0  0  0  0  0
  -19.1011   33.3824  -20.7853 P   0  0  0  0  0  0  0  0  0  0  0  0
  -19.8290   32.2761  -20.3784 O   0  0  0  0  0  0  0  0  0  0  0  0
  -17.9203   33.2197  -19.9666 O   0  0  0  0  0  0  0  0  0  0  0  0
  -19.8685   34.6958  -20.3660 O   0  0  0  0  0  0  0  0  0  0  0  0
  1  2  2  0
  2  3  1  0
  2  4  1  0
  4  5  1  0
  5  6  1  0
  6  7  1  0
  7  8  1  0
  8  9  2  0
  8 10  1  0
 10 11  1  0
 10 12  2  0
 11 13  1  0
 13 14  1  0
 13 15  1  0
 13 16  2  0
M  END
