
     RDKit          3D

 16 16  0  0  0  0  0  0  0  0999 V2000
  -14.1334   27.4720  -22.9160 O   0  0  0  0  0  0  0  0  0  0  0  0
  -14.9141   27.5957  -21.6880 C   0  0  0  0  0  0  0  0  0  0  0  0
  -15.8420   28.7447  -22.0036 C   0  0  0  0  0  0  0  0  0  0  0  0
  -17.1049   28.4893  -22.2952 O   0  0  0  0  0  0  0  0  0  0  0  0
  -15.4758   30.0026  -21.8907 N   0  0  0  0  0  0  0  0  0  0  0  0
  -16.3744   31.1341  -22.1488 C   0  0  0  0  0  0  0  0  0  0  0  0
  -17.4611   31.3265  -21.4647 C   0  0  0  0  0  0  0  0  0  0  0  0
  -16.4439   31.2396  -23.6052 C   0  0  0  0  0  0  0  0  0  0  0  0
  -17.6420   31.4873  -20.3124 O   0  0  0  0  0  0  0  0  0  0  0  0
  -17.6413   31.7817  -24.1579 C   0  0  0  0  0  0  0  0  0  0  0  0
  -18.6844   31.6346  -22.1258 N   0  0  0  0  0  0  0  0  0  0  0  0
  -18.5692   32.0079  -23.4202 C   0  0  0  0  0  0  0  0  0  0  0  0
  -19.9034   31.8799  -21.3326 C   0  0  0  0  0  0  0  0  0  0  0  0
  -19.9880   33.1398  -20.6952 C   0  0  0  0  0  0  0  0  0  0  0  0
  -19.8982   34.1215  -21.0775 O   0  0  0  0  0  0  0  0  0  0  0  0
  -20.2910   33.0551  -19.4051 O   0  0  0  0  0  0  0  0  0  0  0  0
  1  2  1  0
  2  3  1  0
  3  4  2  0
  3  5  1  0
  5  6  1  0
  6  7  1  0
  6  8  1  0
  7  9  2  0
  8 10  1  0
  7 11  1  0
 10 12  2  0
 11 12  1  0
 11 13  1  0
 13 14  1  0
 14 15  2  0
 14 16  1  0
M  END
