
     RDKit          3D

 16 17  0  0  0  0  0  0  0  0999 V2000
  -21.4278   34.1401  -21.0593 O   0  0  0  0  0  0  0  0  0  0  0  0
  -20.1028   33.7614  -20.7909 P   0  0  0  0  0  0  0  0  0  0  0  0
  -19.2905   33.5840  -22.0218 O   0  0  0  0  0  0  0  0  0  0  0  0
  -18.7082   34.7012  -22.8762 C   0  0  0  0  0  0  0  0  0  0  0  0
  -20.1050   32.5606  -19.8165 O   0  0  0  0  0  0  0  0  0  0  0  0
  -19.2139   34.8581  -19.9642 O   0  0  0  0  0  0  0  0  0  0  0  0
  -17.4323   34.6322  -23.2136 C   0  0  0  0  0  0  0  0  0  0  0  0
  -17.1743   33.3221  -24.0019 O   0  0  0  0  0  0  0  0  0  0  0  0
  -17.1966   35.9216  -24.0429 C   0  0  0  0  0  0  0  0  0  0  0  0
  -17.0045   35.5876  -25.3274 O   0  0  0  0  0  0  0  0  0  0  0  0
  -15.8747   34.7187  -25.7383 C   0  0  0  0  0  0  0  0  0  0  0  0
  -16.3948   33.3034  -25.1805 C   0  0  0  0  0  0  0  0  0  0  0  0
  -18.3284   36.8081  -23.8517 O   0  0  0  0  0  0  0  0  0  0  0  0
  -19.4799   36.0731  -23.3875 C   0  0  0  0  0  0  0  0  0  0  0  0
  -16.3050   32.1416  -25.7184 O   0  0  0  0  0  0  0  0  0  0  0  0
  -14.6849   35.0933  -25.2617 O   0  0  0  0  0  0  0  0  0  0  0  0
  1  2  2  0
  2  3  1  0
  3  4  1  0
  2  5  1  0
  2  6  1  0
  4  7  1  0
  7  8  1  0
  7  9  1  0
  9 10  1  0
 10 11  1  0
  8 12  1  0
 11 12  1  0
  9 13  1  0
  4 14  2  0
 13 14  1  0
 12 15  2  0
 11 16  1  0
M  END
