
     RDKit          3D

 16 15  0  0  0  0  0  0  0  0999 V2000
  -20.8008   33.6919  -21.1511 O   0  0  0  0  0  0  0  0  0  0  0  0
  -19.5932   33.5566  -21.1115 P   0  0  0  0  0  0  0  0  0  0  0  0
  -19.0372   33.1387  -22.4332 O   0  0  0  0  0  0  0  0  0  0  0  0
  -18.7517   34.8492  -20.7725 O   0  0  0  0  0  0  0  0  0  0  0  0
  -19.1608   32.4658  -20.0462 O   0  0  0  0  0  0  0  0  0  0  0  0
  -18.5402   36.1078  -21.6700 P   0  0  0  0  0  0  0  0  0  0  0  0
  -19.3136   36.0891  -22.6468 O   0  0  0  0  0  0  0  0  0  0  0  0
  -18.5248   37.3583  -20.8024 O   0  0  0  0  0  0  0  0  0  0  0  0
  -18.7899   31.7636  -23.1265 P   0  0  0  0  0  0  0  0  0  0  0  0
  -19.5525   30.9502  -22.7505 O   0  0  0  0  0  0  0  0  0  0  0  0
  -18.9815   31.9889  -24.6689 O   0  0  0  0  0  0  0  0  0  0  0  0
  -17.0087   35.7067  -22.1235 O   0  0  0  0  0  0  0  0  0  0  0  0
  -17.3103   31.3555  -22.8032 O   0  0  0  0  0  0  0  0  0  0  0  0
  -16.6958   30.2470  -22.6579 C   0  0  0  0  0  0  0  0  0  0  0  0
  -15.2953   30.3062  -22.3499 C   0  0  0  0  0  0  0  0  0  0  0  0
  -14.8040   28.9044  -22.1985 O   0  0  0  0  0  0  0  0  0  0  0  0
  1  2  1  0
  2  3  1  0
  2  4  1  0
  2  5  2  0
  4  6  1  0
  6  7  2  0
  6  8  1  0
  3  9  1  0
  9 10  1  0
  9 11  2  0
  6 12  1  0
  9 13  1  0
 13 14  1  0
 14 15  1  0
 15 16  1  0
M  END
