
     RDKit          3D

 16 16  0  0  0  0  0  0  0  0999 V2000
  -19.9125   33.5785  -19.8430 O   0  0  0  0  0  0  0  0  0  0  0  0
  -19.4031   32.7329  -20.6437 P   0  0  0  0  0  0  0  0  0  0  0  0
  -18.1431   32.3793  -20.7469 O   0  0  0  0  0  0  0  0  0  0  0  0
  -20.3952   31.5069  -20.5503 O   0  0  0  0  0  0  0  0  0  0  0  0
  -19.7915   33.4173  -22.0751 O   0  0  0  0  0  0  0  0  0  0  0  0
  -18.6730   33.3796  -23.0975 C   0  0  0  0  0  0  0  0  0  0  0  0
  -18.3509   32.2156  -23.7474 C   0  0  0  0  0  0  0  0  0  0  0  0
  -18.8935   34.6111  -23.9987 C   0  0  0  0  0  0  0  0  0  0  0  0
  -17.1827   32.0153  -24.2531 O   0  0  0  0  0  0  0  0  0  0  0  0
  -18.6992   30.8206  -23.2371 C   0  0  0  0  0  0  0  0  0  0  0  0
  -18.8334   35.7586  -23.3962 O   0  0  0  0  0  0  0  0  0  0  0  0
  -17.8557   34.6009  -25.1286 C   0  0  0  0  0  0  0  0  0  0  0  0
  -16.9300   33.1819  -25.3609 C   0  0  0  0  0  0  0  0  0  0  0  0
  -17.6526   30.1149  -22.6311 O   0  0  0  0  0  0  0  0  0  0  0  0
  -17.9149   35.0792  -26.2317 O   0  0  0  0  0  0  0  0  0  0  0  0
  -16.0028   32.9701  -26.0312 O   0  0  0  0  0  0  0  0  0  0  0  0
  1  2  1  0
  2  3  1  0
  2  4  2  0
  2  5  1  0
  5  6  1  0
  6  7  1  0
  6  8  1  0
  7  9  1  0
  7 10  1  0
  8 11  1  0
  8 12  1  0
  9 13  1  0
 12 13  1  0
 10 14  1  0
 12 15  1  0
 13 16  2  0
M  END
