
     RDKit          3D

 16 16  0  0  0  0  0  0  0  0999 V2000
  -20.8912   33.3756  -20.3191 O   0  0  0  0  0  0  0  0  0  0  0  0
  -19.5584   32.9442  -20.4655 P   0  0  0  0  0  0  0  0  0  0  0  0
  -19.4622   32.5096  -21.9065 O   0  0  0  0  0  0  0  0  0  0  0  0
  -18.3224   31.7545  -22.4074 C   0  0  0  0  0  0  0  0  0  0  0  0
  -18.2196   31.8000  -23.8466 C   0  0  0  0  0  0  0  0  0  0  0  0
  -19.2083   31.9148  -19.5942 O   0  0  0  0  0  0  0  0  0  0  0  0
  -18.5249   34.1989  -20.3794 O   0  0  0  0  0  0  0  0  0  0  0  0
  -16.9421   31.4273  -24.3363 O   0  0  0  0  0  0  0  0  0  0  0  0
  -19.2222   30.8826  -24.4928 C   0  0  0  0  0  0  0  0  0  0  0  0
  -19.4264   31.1513  -25.8190 O   0  0  0  0  0  0  0  0  0  0  0  0
  -16.1998   32.6994  -24.6309 C   0  0  0  0  0  0  0  0  0  0  0  0
  -16.7456   33.9000  -24.0589 C   0  0  0  0  0  0  0  0  0  0  0  0
  -16.0639   32.7866  -26.0480 C   0  0  0  0  0  0  0  0  0  0  0  0
  -16.8349   34.8882  -25.0535 N   0  0  0  0  0  0  0  0  0  0  0  0
  -16.7125   34.2012  -26.4265 C   0  0  0  0  0  0  0  0  0  0  0  0
  -16.6986   34.8706  -27.4993 C   0  0  0  0  0  0  0  0  0  0  0  0
  1  2  1  0
  2  3  1  0
  3  4  1  0
  4  5  1  0
  2  6  2  0
  2  7  1  0
  5  8  1  0
  5  9  1  0
  9 10  1  0
  8 11  1  0
 11 12  1  0
 11 13  1  0
 12 14  1  0
 13 15  1  0
 14 15  1  0
 15 16  2  0
M  END
