
     RDKit          3D

 16 16  0  0  0  0  0  0  0  0999 V2000
  -13.7363   27.4625  -22.5818 O   0  0  0  0  0  0  0  0  0  0  0  0
  -14.7905   27.4773  -21.8306 C   0  0  0  0  0  0  0  0  0  0  0  0
  -15.3618   26.7621  -21.1373 O   0  0  0  0  0  0  0  0  0  0  0  0
  -15.5827   28.8312  -22.1554 C   0  0  0  0  0  0  0  0  0  0  0  0
  -16.8918   28.8820  -22.1193 C   0  0  0  0  0  0  0  0  0  0  0  0
  -17.6140   30.0150  -22.4279 C   0  0  0  0  0  0  0  0  0  0  0  0
  -14.8709   29.9975  -22.6610 C   0  0  0  0  0  0  0  0  0  0  0  0
  -13.4937   29.9940  -22.7569 O   0  0  0  0  0  0  0  0  0  0  0  0
  -17.0356   31.1232  -22.9209 C   0  0  0  0  0  0  0  0  0  0  0  0
  -15.5936   31.0970  -23.0837 C   0  0  0  0  0  0  0  0  0  0  0  0
  -17.8134   32.2254  -23.4876 C   0  0  0  0  0  0  0  0  0  0  0  0
  -18.2699   33.0948  -22.6178 N   0  0  0  0  0  0  0  0  0  0  0  0
  -18.0877   32.2505  -24.8130 O   0  0  0  0  0  0  0  0  0  0  0  0
  -18.3760   32.9722  -21.2475 C   0  0  0  0  0  0  0  0  0  0  0  0
  -18.6058   34.1364  -20.5824 O   0  0  0  0  0  0  0  0  0  0  0  0
  -18.9283   31.9151  -20.6857 O   0  0  0  0  0  0  0  0  0  0  0  0
  1  2  2  0
  2  3  1  0
  2  4  1  0
  4  5  2  0
  5  6  1  0
  4  7  1  0
  7  8  1  0
  6  9  2  0
  7 10  2  0
  9 10  1  0
  9 11  1  0
 11 12  1  0
 11 13  2  0
 12 14  1  0
 14 15  1  0
 14 16  2  0
M  END
