
     RDKit          3D

 17 18  0  0  0  0  0  0  0  0999 V2000
  -20.7837   34.9086  -21.8338 O   0  0  0  0  0  0  0  0  0  0  0  0
  -19.9065   33.9506  -21.1786 P   0  0  0  0  0  0  0  0  0  0  0  0
  -19.3959   34.4119  -20.0202 O   0  0  0  0  0  0  0  0  0  0  0  0
  -20.5201   32.5411  -20.9889 O   0  0  0  0  0  0  0  0  0  0  0  0
  -18.5484   33.7008  -22.0299 O   0  0  0  0  0  0  0  0  0  0  0  0
  -18.0813   34.6443  -23.0981 C   0  0  0  0  0  0  0  0  0  0  0  0
  -18.5265   34.4649  -24.3699 C   0  0  0  0  0  0  0  0  0  0  0  0
  -18.1328   35.3136  -25.3577 C   0  0  0  0  0  0  0  0  0  0  0  0
  -17.2734   35.5586  -22.8496 C   0  0  0  0  0  0  0  0  0  0  0  0
  -19.5168   33.1196  -24.7965 C   0  0  0  0  0  0  0  0  0  0  0  0
  -18.6217   35.0471  -26.8386 C   0  0  0  0  0  0  0  0  0  0  0  0
  -16.7456   35.7807  -21.4536 O   0  0  0  0  0  0  0  0  0  0  0  0
  -17.4170   36.2188  -25.0680 C   0  0  0  0  0  0  0  0  0  0  0  0
  -19.1181   32.6785  -26.1687 N   0  0  0  0  0  0  0  0  0  0  0  0
  -20.0041   31.5611  -26.5236 C   0  0  0  0  0  0  0  0  0  0  0  0
  -16.9279   36.4837  -23.7939 C   0  0  0  0  0  0  0  0  0  0  0  0
  -18.9994   33.6779  -27.2257 C   0  0  0  0  0  0  0  0  0  0  0  0
  1  2  2  0
  2  3  1  0
  2  4  1  0
  2  5  1  0
  5  6  1  0
  6  7  1  0
  7  8  2  0
  6  9  2  0
  7 10  1  0
  8 11  1  0
  9 12  1  0
  8 13  1  0
 10 14  1  0
 14 15  1  0
  9 16  1  0
 13 16  2  0
 11 17  2  0
 14 17  1  0
M  END
