
     RDKit          3D

 17 17  0  0  0  0  0  0  0  0999 V2000
  -13.7363   27.4625  -22.5818 O   0  0  0  0  0  0  0  0  0  0  0  0
  -15.0199   27.7322  -22.1431 C   0  0  0  0  0  0  0  0  0  0  0  0
  -15.8972   27.0021  -21.8473 N   0  0  0  0  0  0  0  0  0  0  0  0
  -15.2701   29.2671  -22.1955 C   0  0  0  0  0  0  0  0  0  0  0  0
  -16.4411   29.7616  -21.8758 C   0  0  0  0  0  0  0  0  0  0  0  0
  -14.3857   30.1369  -22.9051 C   0  0  0  0  0  0  0  0  0  0  0  0
  -13.1387   29.7522  -23.3462 O   0  0  0  0  0  0  0  0  0  0  0  0
  -14.8557   31.3191  -22.8429 C   0  0  0  0  0  0  0  0  0  0  0  0
  -16.8604   30.9671  -21.9339 C   0  0  0  0  0  0  0  0  0  0  0  0
  -13.8819   32.2751  -23.5615 O   0  0  0  0  0  0  0  0  0  0  0  0
  -15.9751   31.8594  -22.4006 C   0  0  0  0  0  0  0  0  0  0  0  0
  -18.1673   31.4083  -21.4262 C   0  0  0  0  0  0  0  0  0  0  0  0
  -18.2771   32.6808  -20.8629 O   0  0  0  0  0  0  0  0  0  0  0  0
  -19.4186   33.5663  -20.8552 P   0  0  0  0  0  0  0  0  0  0  0  0
  -18.9669   34.7612  -21.2423 O   0  0  0  0  0  0  0  0  0  0  0  0
  -20.5599   33.0388  -21.6810 O   0  0  0  0  0  0  0  0  0  0  0  0
  -19.8478   33.5600  -19.3336 O   0  0  0  0  0  0  0  0  0  0  0  0
  1  2  2  0
  2  3  1  0
  2  4  1  0
  4  5  2  0
  4  6  1  0
  6  7  1  0
  6  8  2  0
  5  9  1  0
  8 10  1  0
  8 11  1  0
  9 11  2  0
  9 12  1  0
 12 13  1  0
 13 14  1  0
 14 15  1  0
 14 16  2  0
 14 17  1  0
M  END
