
     RDKit          3D

 17 16  0  0  0  0  0  0  0  0999 V2000
  -21.4278   34.1401  -21.0593 O   0  0  0  0  0  0  0  0  0  0  0  0
  -20.1456   34.3162  -21.4098 C   0  0  0  0  0  0  0  0  0  0  0  0
  -19.2589   33.1837  -21.3251 C   0  0  0  0  0  0  0  0  0  0  0  0
  -18.9218   32.5744  -22.5323 C   0  0  0  0  0  0  0  0  0  0  0  0
  -19.4646   35.4493  -20.8322 O   0  0  0  0  0  0  0  0  0  0  0  0
  -18.7643   31.2109  -22.6571 C   0  0  0  0  0  0  0  0  0  0  0  0
  -19.7495   33.0510  -23.5464 O   0  0  0  0  0  0  0  0  0  0  0  0
  -17.3875   30.6556  -22.6525 N   0  0  0  0  0  0  0  0  0  0  0  0
  -19.9614   32.1028  -20.5848 O   0  0  0  0  0  0  0  0  0  0  0  0
  -18.2137   35.9907  -21.4471 P   0  0  0  0  0  0  0  0  0  0  0  0
  -17.2013   35.8570  -20.4720 O   0  0  0  0  0  0  0  0  0  0  0  0
  -16.8039   29.5962  -22.2945 C   0  0  0  0  0  0  0  0  0  0  0  0
  -18.5532   37.3833  -21.7875 O   0  0  0  0  0  0  0  0  0  0  0  0
  -15.3647   29.4598  -22.3805 C   0  0  0  0  0  0  0  0  0  0  0  0
  -17.9646   35.2498  -22.7299 O   0  0  0  0  0  0  0  0  0  0  0  0
  -14.8431   30.5081  -22.8773 O   0  0  0  0  0  0  0  0  0  0  0  0
  -14.8585   28.3153  -22.0293 O   0  0  0  0  0  0  0  0  0  0  0  0
  1  2  1  0
  2  3  1  0
  3  4  1  0
  2  5  1  0
  4  6  1  0
  4  7  1  0
  6  8  1  0
  3  9  1  0
  5 10  1  0
 10 11  1  0
  8 12  1  0
 10 13  1  0
 12 14  1  0
 10 15  2  0
 14 16  2  0
 14 17  1  0
M  END
