
     RDKit          3D

 17 17  0  0  0  0  0  0  0  0999 V2000
  -13.8243   27.3438  -22.5774 O   0  0  0  0  0  0  0  0  0  0  0  0
  -15.1223   27.7392  -22.1154 C   0  0  0  0  0  0  0  0  0  0  0  0
  -15.3967   29.1285  -22.2847 C   0  0  0  0  0  0  0  0  0  0  0  0
  -16.1148   27.0240  -21.8680 O   0  0  0  0  0  0  0  0  0  0  0  0
  -16.7215   29.6548  -22.1426 C   0  0  0  0  0  0  0  0  0  0  0  0
  -14.4056   30.0824  -22.4125 C   0  0  0  0  0  0  0  0  0  0  0  0
  -14.7790   31.4351  -22.6602 C   0  0  0  0  0  0  0  0  0  0  0  0
  -17.7518   28.6980  -22.0214 O   0  0  0  0  0  0  0  0  0  0  0  0
  -13.7227   32.2505  -22.9635 F   0  0  0  0  0  0  0  0  0  0  0  0
  -17.0816   31.0093  -22.3328 C   0  0  0  0  0  0  0  0  0  0  0  0
  -15.9044   31.7553  -22.5593 C   0  0  0  0  0  0  0  0  0  0  0  0
  -18.2382   31.3135  -22.0607 N   0  0  0  0  0  0  0  0  0  0  0  0
  -18.6071   32.4828  -21.2922 C   0  0  0  0  0  0  0  0  0  0  0  0
  -17.8259   33.3290  -20.9293 O   0  0  0  0  0  0  0  0  0  0  0  0
  -20.0310   32.7674  -21.3130 C   0  0  0  0  0  0  0  0  0  0  0  0
  -20.4874   33.8999  -21.2135 O   0  0  0  0  0  0  0  0  0  0  0  0
  -20.7968   31.7985  -21.0012 O   0  0  0  0  0  0  0  0  0  0  0  0
  1  2  2  0
  2  3  1  0
  2  4  1  0
  3  5  2  0
  3  6  1  0
  6  7  2  0
  5  8  1  0
  7  9  1  0
  5 10  1  0
  7 11  1  0
 10 11  2  0
 10 12  1  0
 12 13  1  0
 13 14  2  0
 13 15  1  0
 15 16  2  0
 15 17  1  0
M  END
