
     RDKit          3D

 17 17  0  0  0  0  0  0  0  0999 V2000
  -20.3738   33.4143  -20.0963 O   0  0  0  0  0  0  0  0  0  0  0  0
  -19.4614   32.7202  -20.5475 P   0  0  0  0  0  0  0  0  0  0  0  0
  -19.6258   32.4815  -21.9140 O   0  0  0  0  0  0  0  0  0  0  0  0
  -19.2661   31.5767  -19.6084 O   0  0  0  0  0  0  0  0  0  0  0  0
  -18.1548   33.5770  -20.6212 O   0  0  0  0  0  0  0  0  0  0  0  0
  -19.0273   33.1489  -23.1015 C   0  0  0  0  0  0  0  0  0  0  0  0
  -18.1962   32.2355  -23.9151 C   0  0  0  0  0  0  0  0  0  0  0  0
  -17.5860   31.2852  -23.3232 C   0  0  0  0  0  0  0  0  0  0  0  0
  -19.1573   31.8484  -25.0177 O   0  0  0  0  0  0  0  0  0  0  0  0
  -16.1647   31.1891  -23.2569 C   0  0  0  0  0  0  0  0  0  0  0  0
  -18.3117   30.2625  -22.6915 C   0  0  0  0  0  0  0  0  0  0  0  0
  -15.3336   32.1616  -23.9602 C   0  0  0  0  0  0  0  0  0  0  0  0
  -15.5945   30.2753  -22.3090 C   0  0  0  0  0  0  0  0  0  0  0  0
  -14.2727   30.1829  -22.2201 O   0  0  0  0  0  0  0  0  0  0  0  0
  -17.6326   29.2952  -22.0187 C   0  0  0  0  0  0  0  0  0  0  0  0
  -16.3171   29.2263  -21.8619 N   0  0  0  0  0  0  0  0  0  0  0  0
  -15.6850   28.2097  -21.1195 O   0  0  0  0  0  0  0  0  0  0  0  0
  1  2  1  0
  2  3  1  0
  2  4  2  0
  2  5  1  0
  3  6  1  0
  6  7  1  0
  7  8  1  0
  7  9  1  0
  8 10  2  0
  8 11  1  0
 10 12  1  0
 10 13  1  0
 13 14  2  0
 11 15  2  0
 13 16  1  0
 15 16  1  0
 16 17  1  0
M  END
