
     RDKit          3D

 18 17  0  0  0  0  0  0  0  0999 V2000
  -20.7837   34.9086  -21.8338 O   0  0  0  0  0  0  0  0  0  0  0  0
  -19.9065   33.9506  -21.1786 P   0  0  0  0  0  0  0  0  0  0  0  0
  -19.3959   34.4119  -20.0202 O   0  0  0  0  0  0  0  0  0  0  0  0
  -18.7641   33.4837  -22.2909 O   0  0  0  0  0  0  0  0  0  0  0  0
  -18.4078   32.1676  -22.7706 C   0  0  0  0  0  0  0  0  0  0  0  0
  -20.5258   32.6255  -20.7986 O   0  0  0  0  0  0  0  0  0  0  0  0
  -17.4755   32.1536  -23.7371 C   0  0  0  0  0  0  0  0  0  0  0  0
  -18.7537   31.1785  -22.0661 O   0  0  0  0  0  0  0  0  0  0  0  0
  -18.0682   32.3896  -24.9753 C   0  0  0  0  0  0  0  0  0  0  0  0
  -16.8742   30.7571  -23.7054 N   0  0  0  0  0  0  0  0  0  0  0  0
  -17.2034   32.7002  -26.1579 C   0  0  0  0  0  0  0  0  0  0  0  0
  -16.5129   30.1679  -22.5014 C   0  0  0  0  0  0  0  0  0  0  0  0
  -15.6111   28.9667  -22.6758 C   0  0  0  0  0  0  0  0  0  0  0  0
  -14.5423   29.0164  -23.1321 O   0  0  0  0  0  0  0  0  0  0  0  0
  -17.5007   34.0384  -26.5878 N   0  0  0  0  0  0  0  0  0  0  0  0
  -15.9278   28.0112  -21.8223 O   0  0  0  0  0  0  0  0  0  0  0  0
  -16.4961   34.5805  -27.3036 C   0  0  0  0  0  0  0  0  0  0  0  0
  -17.9751   35.0358  -25.5738 C   0  0  0  0  0  0  0  0  0  0  0  0
  1  2  2  0
  2  3  1  0
  2  4  1  0
  4  5  1  0
  2  6  1  0
  5  7  1  0
  5  8  2  0
  7  9  1  0
  7 10  1  0
  9 11  1  0
 10 12  1  0
 12 13  1  0
 13 14  2  0
 11 15  1  0
 13 16  1  0
 15 17  1  0
 15 18  1  0
M  END
