
     RDKit          3D

 18 18  0  0  0  0  0  0  0  0999 V2000
  -20.1011   32.5347  -20.0066 O   0  0  0  0  0  0  0  0  0  0  0  0
  -19.7585   33.3767  -20.9331 P   0  0  0  0  0  0  0  0  0  0  0  0
  -20.6652   33.9951  -21.7162 O   0  0  0  0  0  0  0  0  0  0  0  0
  -18.7977   32.4534  -21.9959 O   0  0  0  0  0  0  0  0  0  0  0  0
  -18.8179   32.4547  -23.5994 C   0  0  0  0  0  0  0  0  0  0  0  0
  -17.6651   33.1250  -24.0463 C   0  0  0  0  0  0  0  0  0  0  0  0
  -17.8652   34.4483  -24.4428 O   0  0  0  0  0  0  0  0  0  0  0  0
  -18.6997   34.4095  -20.5224 O   0  0  0  0  0  0  0  0  0  0  0  0
  -17.0118   32.5048  -25.2736 C   0  0  0  0  0  0  0  0  0  0  0  0
  -16.7873   34.9931  -25.2247 C   0  0  0  0  0  0  0  0  0  0  0  0
  -16.0773   31.5309  -24.9517 O   0  0  0  0  0  0  0  0  0  0  0  0
  -16.2507   33.6672  -25.8947 C   0  0  0  0  0  0  0  0  0  0  0  0
  -17.4246   35.9191  -26.1116 N   0  0  0  0  0  0  0  0  0  0  0  0
  -16.0793   33.6258  -27.2402 O   0  0  0  0  0  0  0  0  0  0  0  0
  -18.7048   30.8682  -23.8283 C   0  0  0  0  0  0  0  0  0  0  0  0
  -18.1712   30.2458  -22.7139 O   0  0  0  0  0  0  0  0  0  0  0  0
  -17.2156   36.0998  -27.4322 C   0  0  0  0  0  0  0  0  0  0  0  0
  -18.3095   36.9254  -25.5606 C   0  0  0  0  0  0  0  0  0  0  0  0
  1  2  1  0
  2  3  2  0
  2  4  1  0
  4  5  1  0
  5  6  1  0
  6  7  1  0
  2  8  1  0
  6  9  1  0
  7 10  1  0
  9 11  1  0
  9 12  1  0
 10 12  1  0
 10 13  1  0
 12 14  1  0
  5 15  1  0
 15 16  1  0
 13 17  1  0
 13 18  1  0
M  END
