
     RDKit          3D

  4  3  0  0  0  0  0  0  0  0999 V2000
  -12.6154   34.6877  -34.2517 C   0  0  0  0  0  0  0  0  0  0  0  0
  -13.2803   33.8667  -33.6171 C   0  0  0  0  0  0  0  0  0  0  0  0
  -12.5266   35.5159  -35.3651 C   0  0  0  0  0  0  0  0  0  0  0  0
  -13.7592   32.9625  -32.5802 C   0  0  0  0  0  0  0  0  0  0  0  0
  1  2  3  0
  1  3  1  0
  2  4  1  0
M  END
