
     RDKit          3D

 18 20  0  0  0  0  0  0  0  0999 V2000
  -14.2882   27.6533  -22.1211 O   0  0  0  0  0  0  0  0  0  0  0  0
  -15.2764   28.4024  -22.3101 C   0  0  0  0  0  0  0  0  0  0  0  0
  -15.1317   29.7768  -22.4564 N   0  0  0  0  0  0  0  0  0  0  0  0
  -13.9383   30.3372  -22.8446 C   0  0  0  0  0  0  0  0  0  0  0  0
  -16.5697   27.9271  -22.2048 N   0  0  0  0  0  0  0  0  0  0  0  0
  -14.2572   31.5909  -23.4217 C   0  0  0  0  0  0  0  0  0  0  0  0
  -15.7567   31.8343  -23.4933 C   0  0  0  0  0  0  0  0  0  0  0  0
  -16.4395   30.4815  -22.8617 C   0  0  0  0  0  0  0  0  0  0  0  0
  -16.5840   32.7882  -23.9694 C   0  0  0  0  0  0  0  0  0  0  0  0
  -15.8154   33.7811  -24.6452 N   0  0  0  0  0  0  0  0  0  0  0  0
  -17.7948   32.9837  -23.7531 N   0  0  0  0  0  0  0  0  0  0  0  0
  -16.4319   34.8955  -25.1835 C   0  0  0  0  0  0  0  0  0  0  0  0
  -17.8658   34.9885  -24.9993 C   0  0  0  0  0  0  0  0  0  0  0  0
  -16.1522   35.1156  -26.6319 C   0  0  0  0  0  0  0  0  0  0  0  0
  -18.4425   34.1665  -23.9822 C   0  0  0  0  0  0  0  0  0  0  0  0
  -19.9653   34.0853  -24.0943 O   0  0  0  0  0  0  0  0  0  0  0  0
  -18.5003   34.7701  -26.3786 C   0  0  0  0  0  0  0  0  0  0  0  0
  -17.3615   34.7290  -27.3394 C   0  0  0  0  0  0  0  0  0  0  0  0
  1  2  2  0
  2  3  1  0
  3  4  1  0
  2  5  1  0
  4  6  2  0
  6  7  1  0
  3  8  1  0
  7  8  2  0
  7  9  1  0
  9 10  1  0
  9 11  2  0
 10 12  1  0
 12 13  1  0
 12 14  1  0
 11 15  1  0
 13 15  1  0
 15 16  1  0
 13 17  1  0
 14 18  1  0
 17 18  1  0
M  END
