
     RDKit          3D

 18 20  0  0  0  0  0  0  0  0999 V2000
  -21.4278   34.1401  -21.0593 O   0  0  0  0  0  0  0  0  0  0  0  0
  -20.1028   33.7614  -20.7909 P   0  0  0  0  0  0  0  0  0  0  0  0
  -19.2905   33.5840  -22.0218 O   0  0  0  0  0  0  0  0  0  0  0  0
  -18.7082   34.7012  -22.8762 C   0  0  0  0  0  0  0  0  0  0  0  0
  -18.9081   34.5212  -24.2402 C   0  0  0  0  0  0  0  0  0  0  0  0
  -18.6109   35.4500  -25.1019 O   0  0  0  0  0  0  0  0  0  0  0  0
  -17.3463   35.8697  -25.2435 C   0  0  0  0  0  0  0  0  0  0  0  0
  -16.8856   35.6795  -26.5980 C   0  0  0  0  0  0  0  0  0  0  0  0
  -19.1737   34.6475  -19.9527 O   0  0  0  0  0  0  0  0  0  0  0  0
  -17.9119   33.3719  -24.9014 C   0  0  0  0  0  0  0  0  0  0  0  0
  -16.5318   34.1802  -26.7296 C   0  0  0  0  0  0  0  0  0  0  0  0
  -20.0079   32.3077  -20.1264 O   0  0  0  0  0  0  0  0  0  0  0  0
  -16.6184   35.2945  -24.0544 C   0  0  0  0  0  0  0  0  0  0  0  0
  -16.7131   33.8229  -24.2675 C   0  0  0  0  0  0  0  0  0  0  0  0
  -15.6481   36.2666  -26.9119 O   0  0  0  0  0  0  0  0  0  0  0  0
  -17.2081   35.2336  -22.7476 C   0  0  0  0  0  0  0  0  0  0  0  0
  -17.6809   33.2878  -26.2990 C   0  0  0  0  0  0  0  0  0  0  0  0
  -17.4911   32.0120  -26.4577 O   0  0  0  0  0  0  0  0  0  0  0  0
  1  2  2  0
  2  3  1  0
  3  4  1  0
  4  5  1  0
  5  6  1  0
  6  7  1  0
  7  8  1  0
  2  9  1  0
  5 10  1  0
  8 11  1  0
  2 12  1  0
  7 13  1  0
 10 14  1  0
 13 14  1  0
  8 15  1  0
  4 16  1  0
 13 16  1  0
 10 17  1  0
 11 17  1  0
 17 18  1  0
M  END
