
     RDKit          3D

 18 18  0  0  0  0  0  0  0  0999 V2000
  -20.1011   32.5347  -20.0066 O   0  0  0  0  0  0  0  0  0  0  0  0
  -19.2653   32.7251  -20.9214 P   0  0  0  0  0  0  0  0  0  0  0  0
  -18.8926   31.5811  -21.6630 O   0  0  0  0  0  0  0  0  0  0  0  0
  -19.1330   31.0833  -23.0072 C   0  0  0  0  0  0  0  0  0  0  0  0
  -19.8169   33.9295  -21.8794 O   0  0  0  0  0  0  0  0  0  0  0  0
  -19.7077   35.2486  -21.9078 C   0  0  0  0  0  0  0  0  0  0  0  0
  -18.3651   35.6883  -21.9321 C   0  0  0  0  0  0  0  0  0  0  0  0
  -18.0173   36.8940  -21.4299 O   0  0  0  0  0  0  0  0  0  0  0  0
  -17.7823   35.6911  -23.3088 C   0  0  0  0  0  0  0  0  0  0  0  0
  -16.5861   35.1736  -23.4283 O   0  0  0  0  0  0  0  0  0  0  0  0
  -18.0990   33.6232  -20.4865 O   0  0  0  0  0  0  0  0  0  0  0  0
  -16.2166   34.1129  -24.5904 P   0  0  0  0  0  0  0  0  0  0  0  0
  -17.7831   30.9872  -23.7817 C   0  0  0  0  0  0  0  0  0  0  0  0
  -14.8768   33.8133  -24.3563 O   0  0  0  0  0  0  0  0  0  0  0  0
  -17.4641   33.2268  -24.3474 O   0  0  0  0  0  0  0  0  0  0  0  0
  -16.3583   34.3774  -26.0700 O   0  0  0  0  0  0  0  0  0  0  0  0
  -17.3884   31.7174  -24.6391 C   0  0  0  0  0  0  0  0  0  0  0  0
  -17.0249   30.1596  -22.9372 O   0  0  0  0  0  0  0  0  0  0  0  0
  1  2  1  0
  2  3  1  0
  3  4  1  0
  2  5  1  0
  5  6  1  0
  6  7  1  0
  7  8  1  0
  7  9  1  0
  9 10  1  0
  2 11  2  0
 10 12  1  0
  4 13  1  0
 12 14  1  0
 12 15  1  0
 12 16  2  0
 13 17  1  0
 15 17  1  0
 13 18  2  0
M  END
