
     RDKit          3D

 18 17  0  0  0  0  0  0  0  0999 V2000
  -20.8261   33.4103  -20.5517 O   0  0  0  0  0  0  0  0  0  0  0  0
  -19.4073   33.0674  -20.6698 P   0  0  0  0  0  0  0  0  0  0  0  0
  -19.2905   32.8004  -22.1205 O   0  0  0  0  0  0  0  0  0  0  0  0
  -19.2673   31.9473  -19.7689 O   0  0  0  0  0  0  0  0  0  0  0  0
  -18.5999   33.6642  -23.1295 C   0  0  0  0  0  0  0  0  0  0  0  0
  -18.5044   34.3133  -20.3961 O   0  0  0  0  0  0  0  0  0  0  0  0
  -17.9334   33.0180  -24.1035 C   0  0  0  0  0  0  0  0  0  0  0  0
  -17.5903   31.7398  -23.8863 C   0  0  0  0  0  0  0  0  0  0  0  0
  -18.6670   33.2343  -25.4029 O   0  0  0  0  0  0  0  0  0  0  0  0
  -16.2448   31.5134  -23.6908 O   0  0  0  0  0  0  0  0  0  0  0  0
  -15.7562   30.5824  -22.4944 P   0  0  0  0  0  0  0  0  0  0  0  0
  -15.7981   29.1416  -22.9097 O   0  0  0  0  0  0  0  0  0  0  0  0
  -18.1310   32.5951  -26.4998 C   0  0  0  0  0  0  0  0  0  0  0  0
  -14.3185   30.9853  -22.3360 O   0  0  0  0  0  0  0  0  0  0  0  0
  -16.5962   30.7304  -21.2847 O   0  0  0  0  0  0  0  0  0  0  0  0
  -15.2789   27.8773  -22.1243 C   0  0  0  0  0  0  0  0  0  0  0  0
  -16.9050   33.2122  -26.9927 C   0  0  0  0  0  0  0  0  0  0  0  0
  -16.1873   32.6459  -27.8598 O   0  0  0  0  0  0  0  0  0  0  0  0
  1  2  1  0
  2  3  1  0
  2  4  2  0
  3  5  1  0
  2  6  1  0
  5  7  1  0
  7  8  1  0
  7  9  1  0
  8 10  1  0
 10 11  1  0
 11 12  1  0
  9 13  1  0
 11 14  2  0
 11 15  1  0
 12 16  1  0
 13 17  1  0
 17 18  1  0
M  END
