
     RDKit          3D

 18 19  0  0  0  0  0  0  0  0999 V2000
  -14.1334   27.4720  -22.9160 O   0  0  0  0  0  0  0  0  0  0  0  0
  -15.2171   27.8524  -21.9842 C   0  0  0  0  0  0  0  0  0  0  0  0
  -15.5782   29.2000  -22.0555 N   0  0  0  0  0  0  0  0  0  0  0  0
  -15.5780   27.1752  -21.0100 O   0  0  0  0  0  0  0  0  0  0  0  0
  -14.9971   30.2641  -22.3933 C   0  0  0  0  0  0  0  0  0  0  0  0
  -15.8019   31.1103  -23.1878 C   0  0  0  0  0  0  0  0  0  0  0  0
  -15.2029   31.8290  -24.2590 N   0  0  0  0  0  0  0  0  0  0  0  0
  -16.0841   32.7092  -24.8880 C   0  0  0  0  0  0  0  0  0  0  0  0
  -17.2720   31.0625  -23.2812 C   0  0  0  0  0  0  0  0  0  0  0  0
  -18.0631   31.8715  -24.0249 C   0  0  0  0  0  0  0  0  0  0  0  0
  -17.4015   32.7102  -24.8784 C   0  0  0  0  0  0  0  0  0  0  0  0
  -18.3214   33.7841  -25.9518 C   0  0  0  0  0  0  0  0  0  0  0  0
  -18.0520   35.0552  -25.7222 C   0  0  0  0  0  0  0  0  0  0  0  0
  -19.1819   33.3027  -26.8013 C   0  0  0  0  0  0  0  0  0  0  0  0
  -19.8798   34.0749  -27.5935 C   0  0  0  0  0  0  0  0  0  0  0  0
  -20.8953   33.5099  -28.5382 C   0  0  0  0  0  0  0  0  0  0  0  0
  -18.7786   35.9407  -26.5729 C   0  0  0  0  0  0  0  0  0  0  0  0
  -19.7949   35.3790  -27.4476 C   0  0  0  0  0  0  0  0  0  0  0  0
  1  2  2  0
  2  3  1  0
  2  4  1  0
  3  5  1  0
  5  6  1  0
  6  7  2  0
  7  8  1  0
  6  9  1  0
  9 10  2  0
  8 11  2  0
 10 11  1  0
 11 12  1  0
 12 13  1  0
 12 14  2  0
 14 15  1  0
 15 16  1  0
 13 17  2  0
 15 18  2  0
 17 18  1  0
M  END
