
     RDKit          3D

  5  4  0  0  0  0  0  0  0  0999 V2000
  -13.6046   34.6026  -34.1544 C   0  0  0  0  0  0  0  0  0  0  0  0
  -13.1406   33.5548  -33.8452 O   0  0  0  0  0  0  0  0  0  0  0  0
  -13.5546   33.1352  -32.5545 C   0  0  0  0  0  0  0  0  0  0  0  0
  -12.7034   32.8029  -31.7518 C   0  0  0  0  0  0  0  0  0  0  0  0
  -11.6412   33.7268  -31.5612 O   0  0  0  0  0  0  0  0  0  0  0  0
  1  2  1  0
  2  3  1  0
  3  4  1  0
  4  5  1  0
M  END
