
     RDKit          3D

 19 19  0  0  0  0  0  0  0  0999 V2000
  -14.4146   27.5212  -22.6366 O   0  0  0  0  0  0  0  0  0  0  0  0
  -15.5368   28.0451  -21.9218 C   0  0  0  0  0  0  0  0  0  0  0  0
  -16.4164   27.4151  -21.5085 O   0  0  0  0  0  0  0  0  0  0  0  0
  -15.6375   29.5562  -21.9357 C   0  0  0  0  0  0  0  0  0  0  0  0
  -14.8208   30.2491  -22.7406 C   0  0  0  0  0  0  0  0  0  0  0  0
  -13.8620   30.1459  -23.2654 O   0  0  0  0  0  0  0  0  0  0  0  0
  -15.6702   31.4128  -23.3675 N   0  0  0  0  0  0  0  0  0  0  0  0
  -16.8814   31.6710  -23.3585 C   0  0  0  0  0  0  0  0  0  0  0  0
  -17.8962   30.9405  -22.8009 O   0  0  0  0  0  0  0  0  0  0  0  0
  -17.3705   32.7665  -24.3252 C   0  0  0  0  0  0  0  0  0  0  0  0
  -17.0275   32.6888  -25.5788 C   0  0  0  0  0  0  0  0  0  0  0  0
  -16.8839   34.0904  -23.7746 O   0  0  0  0  0  0  0  0  0  0  0  0
  -17.2170   35.2191  -24.4788 C   0  0  0  0  0  0  0  0  0  0  0  0
  -16.8286   35.0361  -25.9361 C   0  0  0  0  0  0  0  0  0  0  0  0
  -17.3050   33.7796  -26.4870 C   0  0  0  0  0  0  0  0  0  0  0  0
  -16.7977   36.1650  -26.7003 O   0  0  0  0  0  0  0  0  0  0  0  0
  -16.4448   36.2988  -23.8089 O   0  0  0  0  0  0  0  0  0  0  0  0
  -17.8075   31.4941  -26.1887 O   0  0  0  0  0  0  0  0  0  0  0  0
  -16.7485   33.6542  -27.8446 O   0  0  0  0  0  0  0  0  0  0  0  0
  1  2  2  0
  2  3  1  0
  2  4  1  0
  4  5  1  0
  5  6  2  0
  5  7  1  0
  7  8  1  0
  8  9  2  0
  8 10  1  0
 10 11  1  0
 10 12  1  0
 12 13  1  0
 13 14  1  0
 11 15  1  0
 14 15  1  0
 14 16  1  0
 13 17  1  0
 11 18  1  0
 15 19  1  0
M  END
