
     RDKit          3D

 19 19  0  0  0  0  0  0  0  0999 V2000
  -13.8243   27.3438  -22.5774 O   0  0  0  0  0  0  0  0  0  0  0  0
  -15.1223   27.7392  -22.1154 C   0  0  0  0  0  0  0  0  0  0  0  0
  -15.3967   29.1285  -22.2847 C   0  0  0  0  0  0  0  0  0  0  0  0
  -16.1148   27.0240  -21.8680 O   0  0  0  0  0  0  0  0  0  0  0  0
  -16.7215   29.6548  -22.1426 C   0  0  0  0  0  0  0  0  0  0  0  0
  -14.4056   30.0824  -22.4125 C   0  0  0  0  0  0  0  0  0  0  0  0
  -14.7790   31.4351  -22.6602 C   0  0  0  0  0  0  0  0  0  0  0  0
  -17.7518   28.6980  -22.0214 O   0  0  0  0  0  0  0  0  0  0  0  0
  -13.7227   32.2505  -22.9635 F   0  0  0  0  0  0  0  0  0  0  0  0
  -17.0816   31.0093  -22.3328 C   0  0  0  0  0  0  0  0  0  0  0  0
  -16.0917   31.8335  -22.6443 C   0  0  0  0  0  0  0  0  0  0  0  0
  -18.3983   31.3105  -22.2460 C   0  0  0  0  0  0  0  0  0  0  0  0
  -19.2027   31.0721  -23.1898 O   0  0  0  0  0  0  0  0  0  0  0  0
  -18.9220   31.8367  -21.1251 N   0  0  0  0  0  0  0  0  0  0  0  0
  -20.0352   32.3289  -20.9254 C   0  0  0  0  0  0  0  0  0  0  0  0
  -20.0436   33.6491  -20.1846 C   0  0  0  0  0  0  0  0  0  0  0  0
  -18.9584   34.2599  -19.9330 O   0  0  0  0  0  0  0  0  0  0  0  0
  -21.1362   33.9934  -19.7789 O   0  0  0  0  0  0  0  0  0  0  0  0
  -20.9865   31.7473  -21.1373 O   0  0  0  0  0  0  0  0  0  0  0  0
  1  2  2  0
  2  3  1  0
  2  4  1  0
  3  5  2  0
  3  6  1  0
  6  7  2  0
  5  8  1  0
  7  9  1  0
  5 10  1  0
  7 11  1  0
 10 11  2  0
 10 12  1  0
 12 13  2  0
 12 14  1  0
 14 15  1  0
 15 16  1  0
 16 17  2  0
 16 18  1  0
 15 19  2  0
M  END
