
     RDKit          3D

 19 19  0  0  0  0  0  0  0  0999 V2000
  -14.2379   27.3191  -22.2686 O   0  0  0  0  0  0  0  0  0  0  0  0
  -15.3668   28.0844  -22.1387 C   0  0  0  0  0  0  0  0  0  0  0  0
  -15.2210   29.4693  -22.3607 N   0  0  0  0  0  0  0  0  0  0  0  0
  -16.4686   27.6370  -21.5971 N   0  0  0  0  0  0  0  0  0  0  0  0
  -16.1346   30.4207  -22.4586 C   0  0  0  0  0  0  0  0  0  0  0  0
  -15.7960   31.4745  -23.4242 C   0  0  0  0  0  0  0  0  0  0  0  0
  -17.3816   30.3134  -22.1340 C   0  0  0  0  0  0  0  0  0  0  0  0
  -18.3133   31.3328  -22.4243 C   0  0  0  0  0  0  0  0  0  0  0  0
  -14.4072   31.4209  -23.9391 O   0  0  0  0  0  0  0  0  0  0  0  0
  -16.5462   32.3045  -23.9643 C   0  0  0  0  0  0  0  0  0  0  0  0
  -17.8676   32.3562  -23.3842 C   0  0  0  0  0  0  0  0  0  0  0  0
  -18.8416   33.4203  -23.9287 C   0  0  0  0  0  0  0  0  0  0  0  0
  -19.0991   34.4278  -23.0021 C   0  0  0  0  0  0  0  0  0  0  0  0
  -19.6544   31.3269  -21.9751 O   0  0  0  0  0  0  0  0  0  0  0  0
  -18.2796   34.7042  -22.0441 O   0  0  0  0  0  0  0  0  0  0  0  0
  -17.9639   36.2492  -21.4897 P   0  0  0  0  0  0  0  0  0  0  0  0
  -18.5544   36.4567  -20.1620 O   0  0  0  0  0  0  0  0  0  0  0  0
  -16.4440   36.4917  -21.4553 O   0  0  0  0  0  0  0  0  0  0  0  0
  -18.6554   37.1856  -22.4781 O   0  0  0  0  0  0  0  0  0  0  0  0
  1  2  2  0
  2  3  1  0
  2  4  1  0
  3  5  1  0
  5  6  1  0
  5  7  2  0
  7  8  1  0
  6  9  1  0
  6 10  2  0
  8 11  2  0
 10 11  1  0
 11 12  1  0
 12 13  1  0
  8 14  1  0
 13 15  1  0
 15 16  1  0
 16 17  1  0
 16 18  1  0
 16 19  2  0
M  END
