
     RDKit          3D

 19 19  0  0  0  0  0  0  0  0999 V2000
  -20.8008   33.6919  -21.1511 O   0  0  0  0  0  0  0  0  0  0  0  0
  -19.5861   33.1068  -20.7937 P   0  0  0  0  0  0  0  0  0  0  0  0
  -18.6775   33.2050  -22.0237 O   0  0  0  0  0  0  0  0  0  0  0  0
  -18.1558   31.9411  -22.7871 C   0  0  0  0  0  0  0  0  0  0  0  0
  -17.2382   32.1129  -23.7678 C   0  0  0  0  0  0  0  0  0  0  0  0
  -16.2639   31.2203  -23.9332 O   0  0  0  0  0  0  0  0  0  0  0  0
  -19.8276   31.6656  -20.4423 O   0  0  0  0  0  0  0  0  0  0  0  0
  -15.5211   30.8585  -22.8124 C   0  0  0  0  0  0  0  0  0  0  0  0
  -17.4921   33.0114  -24.8596 C   0  0  0  0  0  0  0  0  0  0  0  0
  -15.6198   29.3502  -22.5756 C   0  0  0  0  0  0  0  0  0  0  0  0
  -18.7682   33.7292  -19.6929 O   0  0  0  0  0  0  0  0  0  0  0  0
  -18.5664   33.4767  -25.3368 O   0  0  0  0  0  0  0  0  0  0  0  0
  -14.8317   28.6100  -22.6699 O   0  0  0  0  0  0  0  0  0  0  0  0
  -18.6532   34.7919  -25.7942 C   0  0  0  0  0  0  0  0  0  0  0  0
  -16.9019   29.0345  -22.2815 O   0  0  0  0  0  0  0  0  0  0  0  0
  -17.3039   35.0844  -26.2557 C   0  0  0  0  0  0  0  0  0  0  0  0
  -16.7042   36.0937  -25.6311 O   0  0  0  0  0  0  0  0  0  0  0  0
  -16.4739   33.8067  -25.5504 C   0  0  0  0  0  0  0  0  0  0  0  0
  -15.4457   34.3438  -24.7605 O   0  0  0  0  0  0  0  0  0  0  0  0
  1  2  2  0
  2  3  1  0
  3  4  1  0
  4  5  1  0
  5  6  1  0
  2  7  1  0
  6  8  1  0
  5  9  2  3
  8 10  1  0
  2 11  1  0
  9 12  1  0
 10 13  2  0
 12 14  1  0
 10 15  1  0
 14 16  1  0
 16 17  1  0
  9 18  1  0
 16 18  1  0
 18 19  1  0
M  END
