
     RDKit          3D

 19 18  0  0  0  0  0  0  0  0999 V2000
  -20.1011   32.5347  -20.0066 O   0  0  0  0  0  0  0  0  0  0  0  0
  -19.4908   33.2450  -20.9163 P   0  0  0  0  0  0  0  0  0  0  0  0
  -20.3448   33.8841  -21.8215 O   0  0  0  0  0  0  0  0  0  0  0  0
  -18.3830   32.3038  -21.5968 O   0  0  0  0  0  0  0  0  0  0  0  0
  -18.3456   31.9342  -23.0958 P   0  0  0  0  0  0  0  0  0  0  0  0
  -18.6017   34.3468  -20.2610 O   0  0  0  0  0  0  0  0  0  0  0  0
  -17.9768   32.9006  -23.8845 O   0  0  0  0  0  0  0  0  0  0  0  0
  -17.2717   30.7828  -23.2496 O   0  0  0  0  0  0  0  0  0  0  0  0
  -19.6852   31.1420  -23.4025 O   0  0  0  0  0  0  0  0  0  0  0  0
  -18.4436   33.5270  -25.1616 C   0  0  0  0  0  0  0  0  0  0  0  0
  -15.9236   30.9778  -23.1208 C   0  0  0  0  0  0  0  0  0  0  0  0
  -17.3316   33.8610  -26.0584 C   0  0  0  0  0  0  0  0  0  0  0  0
  -16.4962   34.9624  -25.6429 C   0  0  0  0  0  0  0  0  0  0  0  0
  -15.3531   35.1672  -26.3208 O   0  0  0  0  0  0  0  0  0  0  0  0
  -15.2756   29.8866  -22.3401 C   0  0  0  0  0  0  0  0  0  0  0  0
  -15.8738   28.5416  -22.5335 C   0  0  0  0  0  0  0  0  0  0  0  0
  -17.8959   34.2774  -27.3440 O   0  0  0  0  0  0  0  0  0  0  0  0
  -15.0418   27.5567  -21.9613 O   0  0  0  0  0  0  0  0  0  0  0  0
  -17.2710   36.1080  -25.3735 O   0  0  0  0  0  0  0  0  0  0  0  0
  1  2  1  0
  2  3  2  0
  2  4  1  0
  4  5  1  0
  2  6  1  0
  5  7  1  0
  5  8  1  0
  5  9  2  0
  7 10  1  0
  8 11  1  0
 10 12  1  0
 12 13  1  0
 13 14  1  0
 11 15  1  0
 15 16  1  0
 12 17  1  0
 16 18  1  0
 13 19  1  0
M  END
