
     RDKit          3D

 20 20  0  0  0  0  0  0  0  0999 V2000
  -14.1334   27.4720  -22.9160 O   0  0  0  0  0  0  0  0  0  0  0  0
  -15.2171   27.8524  -21.9842 C   0  0  0  0  0  0  0  0  0  0  0  0
  -15.9957   27.1072  -21.5011 O   0  0  0  0  0  0  0  0  0  0  0  0
  -15.5288   29.3328  -21.9762 C   0  0  0  0  0  0  0  0  0  0  0  0
  -15.6260   30.1297  -23.1695 C   0  0  0  0  0  0  0  0  0  0  0  0
  -16.4075   31.3855  -22.9484 C   0  0  0  0  0  0  0  0  0  0  0  0
  -17.5903   31.3929  -23.3248 C   0  0  0  0  0  0  0  0  0  0  0  0
  -15.6473   32.5298  -23.8240 C   0  0  0  0  0  0  0  0  0  0  0  0
  -18.5004   30.4551  -22.9318 O   0  0  0  0  0  0  0  0  0  0  0  0
  -15.6067   32.2801  -25.1850 O   0  0  0  0  0  0  0  0  0  0  0  0
  -18.4487   32.6985  -22.9977 C   0  0  0  0  0  0  0  0  0  0  0  0
  -17.9135   33.8464  -23.7260 O   0  0  0  0  0  0  0  0  0  0  0  0
  -16.5341   33.8170  -24.0183 C   0  0  0  0  0  0  0  0  0  0  0  0
  -18.3587   32.9384  -21.4994 O   0  0  0  0  0  0  0  0  0  0  0  0
  -19.7151   33.3308  -20.6584 P   0  0  0  0  0  0  0  0  0  0  0  0
  -16.2194   34.6331  -25.1012 C   0  0  0  0  0  0  0  0  0  0  0  0
  -15.1315   35.2028  -24.9659 O   0  0  0  0  0  0  0  0  0  0  0  0
  -20.4322   34.1288  -21.3323 O   0  0  0  0  0  0  0  0  0  0  0  0
  -20.4888   32.0247  -20.3568 O   0  0  0  0  0  0  0  0  0  0  0  0
  -19.1348   33.8505  -19.3604 O   0  0  0  0  0  0  0  0  0  0  0  0
  1  2  2  0
  2  3  1  0
  2  4  1  0
  4  5  1  0
  5  6  1  0
  6  7  1  0
  6  8  1  0
  7  9  1  0
  8 10  1  0
  7 11  1  0
 11 12  1  0
  8 13  1  0
 12 13  1  0
 11 14  1  0
 14 15  1  0
 13 16  1  0
 16 17  1  0
 15 18  2  0
 15 19  1  0
 15 20  1  0
M  END
