
     RDKit          3D

 19 19  0  0  0  0  0  0  0  0999 V2000
  -14.3088   27.8307  -22.7389 O   0  0  0  0  0  0  0  0  0  0  0  0
  -15.5360   28.3784  -22.3164 C   0  0  0  0  0  0  0  0  0  0  0  0
  -15.6767   29.7258  -22.3569 C   0  0  0  0  0  0  0  0  0  0  0  0
  -16.6048   30.2702  -23.3552 C   0  0  0  0  0  0  0  0  0  0  0  0
  -16.5335   27.6753  -22.1110 O   0  0  0  0  0  0  0  0  0  0  0  0
  -17.8886   30.5811  -22.8117 N   0  0  0  0  0  0  0  0  0  0  0  0
  -18.9475   30.8140  -23.6373 C   0  0  0  0  0  0  0  0  0  0  0  0
  -18.8564   31.5829  -24.7188 C   0  0  0  0  0  0  0  0  0  0  0  0
  -19.5625   31.4389  -25.8895 C   0  0  0  0  0  0  0  0  0  0  0  0
  -17.7985   32.6475  -24.9438 C   0  0  0  0  0  0  0  0  0  0  0  0
  -16.8470   32.9700  -23.9374 O   0  0  0  0  0  0  0  0  0  0  0  0
  -17.7860   33.3751  -26.1243 C   0  0  0  0  0  0  0  0  0  0  0  0
  -16.6469   34.4531  -26.3455 C   0  0  0  0  0  0  0  0  0  0  0  0
  -19.5957   32.1594  -27.0700 C   0  0  0  0  0  0  0  0  0  0  0  0
  -20.5601   31.8742  -28.1364 C   0  0  0  0  0  0  0  0  0  0  0  0
  -18.6419   33.1337  -27.2182 C   0  0  0  0  0  0  0  0  0  0  0  0
  -16.5996   35.4070  -25.4288 C   0  0  0  0  0  0  0  0  0  0  0  0
  -15.7896   35.4274  -24.4891 O   0  0  0  0  0  0  0  0  0  0  0  0
  -17.2037   36.4879  -25.6982 O   0  0  0  0  0  0  0  0  0  0  0  0
  1  2  2  0
  2  3  1  0
  3  4  1  0
  2  5  1  0
  4  6  1  0
  6  7  1  0
  7  8  1  0
  8  9  2  0
  8 10  1  0
 10 11  1  0
 10 12  2  0
 12 13  1  0
  9 14  1  0
 14 15  1  0
 12 16  1  0
 14 16  2  0
 13 17  1  0
 17 18  1  0
 17 19  2  0
M  END
