
     RDKit          3D

 19 18  0  0  0  0  0  0  0  0999 V2000
  -16.8221   37.5404  -21.1161 O   0  0  0  0  0  0  0  0  0  0  0  0
  -17.5689   36.3562  -20.8245 P   0  0  0  0  0  0  0  0  0  0  0  0
  -17.5565   35.5596  -22.1658 O   0  0  0  0  0  0  0  0  0  0  0  0
  -16.9368   35.6266  -19.6787 O   0  0  0  0  0  0  0  0  0  0  0  0
  -17.0017   35.9076  -23.5549 P   0  0  0  0  0  0  0  0  0  0  0  0
  -17.7709   36.9638  -24.0230 O   0  0  0  0  0  0  0  0  0  0  0  0
  -15.5734   36.1656  -23.3927 O   0  0  0  0  0  0  0  0  0  0  0  0
  -17.3590   34.6644  -24.4006 O   0  0  0  0  0  0  0  0  0  0  0  0
  -16.2652   33.7907  -25.1105 C   0  0  0  0  0  0  0  0  0  0  0  0
  -16.8247   32.7414  -25.9546 C   0  0  0  0  0  0  0  0  0  0  0  0
  -17.6370   33.4432  -26.9320 C   0  0  0  0  0  0  0  0  0  0  0  0
  -17.7756   31.9115  -25.1335 O   0  0  0  0  0  0  0  0  0  0  0  0
  -17.2700   31.5238  -23.8827 C   0  0  0  0  0  0  0  0  0  0  0  0
  -19.0268   36.6666  -20.4314 O   0  0  0  0  0  0  0  0  0  0  0  0
  -18.3143   30.8171  -23.0598 C   0  0  0  0  0  0  0  0  0  0  0  0
  -18.7147   32.9201  -27.2211 O   0  0  0  0  0  0  0  0  0  0  0  0
  -16.8266   33.9121  -28.0845 C   0  0  0  0  0  0  0  0  0  0  0  0
  -15.6908   32.9850  -28.3036 O   0  0  0  0  0  0  0  0  0  0  0  0
  -19.3480   31.4963  -23.0871 O   0  0  0  0  0  0  0  0  0  0  0  0
  1  2  1  0
  2  3  1  0
  2  4  1  0
  3  5  1  0
  5  6  2  0
  5  7  1  0
  5  8  1  0
  8  9  1  0
  9 10  1  0
 10 11  1  0
 10 12  1  0
 12 13  1  0
  2 14  2  0
 13 15  1  0
 11 16  1  0
 11 17  1  0
 17 18  1  0
 15 19  2  0
M  END
