
     RDKit          3D

 19 20  0  0  0  0  0  0  0  0999 V2000
  -14.9034   28.1500  -22.8611 O   0  0  0  0  0  0  0  0  0  0  0  0
  -15.7405   28.7437  -22.1231 C   0  0  0  0  0  0  0  0  0  0  0  0
  -15.9159   30.0829  -22.2993 N   0  0  0  0  0  0  0  0  0  0  0  0
  -16.7656   30.6212  -23.1829 C   0  0  0  0  0  0  0  0  0  0  0  0
  -16.4093   31.7068  -23.9455 C   0  0  0  0  0  0  0  0  0  0  0  0
  -18.1711   30.8718  -22.8630 C   0  0  0  0  0  0  0  0  0  0  0  0
  -18.6151   31.8931  -23.5655 C   0  0  0  0  0  0  0  0  0  0  0  0
  -16.1804   28.1139  -20.9609 N   0  0  0  0  0  0  0  0  0  0  0  0
  -17.4821   32.3866  -24.3606 N   0  0  0  0  0  0  0  0  0  0  0  0
  -17.4669   33.7254  -24.9654 C   0  0  0  0  0  0  0  0  0  0  0  0
  -15.2332   31.7451  -24.4891 O   0  0  0  0  0  0  0  0  0  0  0  0
  -16.7573   34.6912  -24.3923 C   0  0  0  0  0  0  0  0  0  0  0  0
  -18.7398   34.3187  -25.3731 C   0  0  0  0  0  0  0  0  0  0  0  0
  -16.7008   33.3455  -26.3790 C   0  0  0  0  0  0  0  0  0  0  0  0
  -16.6539   34.9566  -23.3329 O   0  0  0  0  0  0  0  0  0  0  0  0
  -16.0315   35.6029  -25.1372 N   0  0  0  0  0  0  0  0  0  0  0  0
  -17.4302   32.4634  -27.3534 C   0  0  0  0  0  0  0  0  0  0  0  0
  -16.2478   34.6883  -26.9568 C   0  0  0  0  0  0  0  0  0  0  0  0
  -15.4205   35.3606  -26.2178 C   0  0  0  0  0  0  0  0  0  0  0  0
  1  2  2  0
  2  3  1  0
  3  4  1  0
  4  5  1  0
  4  6  1  0
  6  7  2  0
  2  8  1  0
  5  9  1  0
  7  9  1  0
  9 10  1  0
  5 11  2  0
 10 12  1  0
 10 13  1  0
 10 14  1  0
 12 15  2  0
 12 16  1  0
 14 17  1  0
 14 18  1  0
 16 19  1  0
 18 19  1  0
M  END
