
     RDKit          3D

 19 19  0  0  0  0  0  0  0  0999 V2000
  -17.1256   36.2981  -19.6745 O   0  0  0  0  0  0  0  0  0  0  0  0
  -17.6138   36.6248  -20.8820 P   0  0  0  0  0  0  0  0  0  0  0  0
  -16.8532   37.5943  -21.6282 O   0  0  0  0  0  0  0  0  0  0  0  0
  -19.1227   36.9577  -20.8601 O   0  0  0  0  0  0  0  0  0  0  0  0
  -17.6451   35.2891  -21.7858 O   0  0  0  0  0  0  0  0  0  0  0  0
  -17.5730   35.3069  -23.2926 P   0  0  0  0  0  0  0  0  0  0  0  0
  -16.2180   35.1746  -23.6603 O   0  0  0  0  0  0  0  0  0  0  0  0
  -15.5290   35.4552  -24.9701 C   0  0  0  0  0  0  0  0  0  0  0  0
  -16.1644   34.6149  -25.9631 C   0  0  0  0  0  0  0  0  0  0  0  0
  -15.9180   34.6006  -27.2387 O   0  0  0  0  0  0  0  0  0  0  0  0
  -18.2183   33.8332  -23.7392 O   0  0  0  0  0  0  0  0  0  0  0  0
  -18.2347   36.4883  -23.9177 O   0  0  0  0  0  0  0  0  0  0  0  0
  -16.1765   33.1311  -25.6038 C   0  0  0  0  0  0  0  0  0  0  0  0
  -17.3260   32.8758  -24.5544 C   0  0  0  0  0  0  0  0  0  0  0  0
  -17.1191   31.7619  -23.5935 C   0  0  0  0  0  0  0  0  0  0  0  0
  -18.1948   30.9553  -23.1057 C   0  0  0  0  0  0  0  0  0  0  0  0
  -16.5154   32.2898  -26.5994 O   0  0  0  0  0  0  0  0  0  0  0  0
  -19.1977   31.6397  -22.5184 O   0  0  0  0  0  0  0  0  0  0  0  0
  -15.9845   31.2648  -23.4435 O   0  0  0  0  0  0  0  0  0  0  0  0
  1  2  1  0
  2  3  2  0
  2  4  1  0
  2  5  1  0
  5  6  1  0
  6  7  1  0
  7  8  1  0
  8  9  1  0
  9 10  1  0
  6 11  1  0
  6 12  2  0
  9 13  1  0
 11 14  1  0
 13 14  1  0
 14 15  1  0
 15 16  1  0
 13 17  1  0
 16 18  1  0
 15 19  2  0
M  END
