
     RDKit          3D

 19 20  0  0  0  0  0  0  0  0999 V2000
  -17.1256   36.2981  -19.6745 O   0  0  0  0  0  0  0  0  0  0  0  0
  -17.6138   36.6248  -20.8820 P   0  0  0  0  0  0  0  0  0  0  0  0
  -17.5240   35.4941  -21.8934 O   0  0  0  0  0  0  0  0  0  0  0  0
  -16.9578   37.7808  -21.6293 O   0  0  0  0  0  0  0  0  0  0  0  0
  -17.1618   35.4569  -23.3523 C   0  0  0  0  0  0  0  0  0  0  0  0
  -17.9936   34.7688  -24.1731 C   0  0  0  0  0  0  0  0  0  0  0  0
  -17.2678   34.0426  -25.1523 C   0  0  0  0  0  0  0  0  0  0  0  0
  -18.6926   33.5794  -23.4376 O   0  0  0  0  0  0  0  0  0  0  0  0
  -18.1837   32.3168  -23.6857 C   0  0  0  0  0  0  0  0  0  0  0  0
  -16.0520   34.7242  -25.4392 C   0  0  0  0  0  0  0  0  0  0  0  0
  -19.1212   36.9201  -20.5856 O   0  0  0  0  0  0  0  0  0  0  0  0
  -16.2246   35.5462  -26.5883 C   0  0  0  0  0  0  0  0  0  0  0  0
  -17.8798   33.8714  -26.4426 O   0  0  0  0  0  0  0  0  0  0  0  0
  -18.0292   31.5048  -22.5989 C   0  0  0  0  0  0  0  0  0  0  0  0
  -19.2736   31.0258  -22.1106 O   0  0  0  0  0  0  0  0  0  0  0  0
  -17.2024   34.6467  -27.4199 C   0  0  0  0  0  0  0  0  0  0  0  0
  -17.2265   32.6379  -24.6766 C   0  0  0  0  0  0  0  0  0  0  0  0
  -17.2129   30.5046  -22.5580 O   0  0  0  0  0  0  0  0  0  0  0  0
  -16.3668   33.6330  -28.1598 C   0  0  0  0  0  0  0  0  0  0  0  0
  1  2  1  0
  2  3  1  0
  2  4  2  0
  3  5  1  0
  5  6  1  0
  6  7  1  0
  6  8  1  0
  8  9  1  0
  7 10  1  0
  2 11  1  0
 10 12  1  0
  7 13  1  0
  9 14  1  0
 14 15  2  0
 12 16  1  0
 13 16  1  0
  7 17  1  0
  9 17  2  0
 14 18  1  0
 16 19  1  0
M  END
