
     RDKit          3D

 14 13  0  0  0  0  0  0  0  0999 V2000
  -16.4934   37.8736  -22.5094 O   0  0  0  0  0  0  0  0  0  0  0  0
  -17.2245   36.6752  -22.2008 P   0  0  0  0  0  0  0  0  0  0  0  0
  -16.7474   35.9723  -21.0499 O   0  0  0  0  0  0  0  0  0  0  0  0
  -17.2790   35.5997  -23.3425 O   0  0  0  0  0  0  0  0  0  0  0  0
  -16.4168   35.4016  -24.5216 C   0  0  0  0  0  0  0  0  0  0  0  0
  -15.9091   34.1542  -24.6615 C   0  0  0  0  0  0  0  0  0  0  0  0
  -16.8318   33.1168  -24.3569 C   0  0  0  0  0  0  0  0  0  0  0  0
  -18.6738   37.1952  -21.9387 O   0  0  0  0  0  0  0  0  0  0  0  0
  -16.3350   31.8327  -24.0937 C   0  0  0  0  0  0  0  0  0  0  0  0
  -17.8349   33.1004  -25.5889 O   0  0  0  0  0  0  0  0  0  0  0  0
  -15.1122   31.8670  -23.8068 O   0  0  0  0  0  0  0  0  0  0  0  0
  -17.2929   31.2711  -23.1076 C   0  0  0  0  0  0  0  0  0  0  0  0
  -15.5605   34.0017  -26.0925 O   0  0  0  0  0  0  0  0  0  0  0  0
  -16.7654   30.1696  -22.4353 O   0  0  0  0  0  0  0  0  0  0  0  0
  1  2  1  0
  2  3  1  0
  2  4  1  0
  4  5  1  0
  5  6  1  0
  6  7  1  0
  2  8  2  0
  7  9  1  0
  7 10  1  0
  9 11  1  0
  9 12  1  0
  6 13  1  0
 12 14  1  0
M  END
