
     RDKit          3D

 14 14  0  0  0  0  0  0  0  0999 V2000
  -16.4934   37.8736  -22.5094 O   0  0  0  0  0  0  0  0  0  0  0  0
  -17.3422   37.0857  -21.7022 P   0  0  0  0  0  0  0  0  0  0  0  0
  -17.6929   35.8211  -22.4745 O   0  0  0  0  0  0  0  0  0  0  0  0
  -16.8039   36.6267  -20.3776 O   0  0  0  0  0  0  0  0  0  0  0  0
  -18.6113   37.9897  -21.3920 O   0  0  0  0  0  0  0  0  0  0  0  0
  -18.7266   35.6707  -23.6463 C   0  0  0  0  0  0  0  0  0  0  0  0
  -18.0373   35.3368  -24.8033 C   0  0  0  0  0  0  0  0  0  0  0  0
  -17.7834   33.9575  -24.9745 O   0  0  0  0  0  0  0  0  0  0  0  0
  -18.7191   35.9401  -26.0095 O   0  0  0  0  0  0  0  0  0  0  0  0
  -19.7433   34.5847  -23.1923 C   0  0  0  0  0  0  0  0  0  0  0  0
  -19.9009   34.4030  -21.8346 O   0  0  0  0  0  0  0  0  0  0  0  0
  -18.8929   33.3156  -23.7828 C   0  0  0  0  0  0  0  0  0  0  0  0
  -19.5980   32.1738  -24.2901 C   0  0  0  0  0  0  0  0  0  0  0  0
  -19.0674   31.0225  -23.6937 O   0  0  0  0  0  0  0  0  0  0  0  0
  1  2  2  0
  2  3  1  0
  2  4  1  0
  2  5  1  0
  3  6  1  0
  6  7  1  0
  7  8  1  0
  7  9  1  0
  6 10  1  0
 10 11  1  0
  8 12  1  0
 10 12  1  0
 12 13  1  0
 13 14  1  0
M  END
