
     RDKit          3D

 14 14  0  0  0  0  0  0  0  0999 V2000
  -15.7632   27.6525  -22.4367 N   0  0  0  0  0  0  0  0  0  0  0  0
  -16.0091   28.7400  -22.0775 C   0  0  0  0  0  0  0  0  0  0  0  0
  -15.2995   29.7947  -22.4886 N   0  0  0  0  0  0  0  0  0  0  0  0
  -16.1105   30.9254  -22.7806 C   0  0  0  0  0  0  0  0  0  0  0  0
  -15.7148   31.6507  -23.8553 C   0  0  0  0  0  0  0  0  0  0  0  0
  -17.3339   31.0574  -22.2133 C   0  0  0  0  0  0  0  0  0  0  0  0
  -18.2099   31.9833  -22.6259 C   0  0  0  0  0  0  0  0  0  0  0  0
  -17.8069   32.9023  -23.5788 C   0  0  0  0  0  0  0  0  0  0  0  0
  -14.4267   31.5865  -24.4066 O   0  0  0  0  0  0  0  0  0  0  0  0
  -16.5257   32.7804  -24.2558 C   0  0  0  0  0  0  0  0  0  0  0  0
  -19.4864   32.2486  -22.0575 O   0  0  0  0  0  0  0  0  0  0  0  0
  -18.4636   33.8945  -24.0913 O   0  0  0  0  0  0  0  0  0  0  0  0
  -18.7143   34.2301  -25.3560 C   0  0  0  0  0  0  0  0  0  0  0  0
  -19.9868   31.1353  -21.2038 O   0  0  0  0  0  0  0  0  0  0  0  0
  1  2  1  0
  2  3  2  3
  3  4  1  0
  4  5  1  0
  4  6  2  0
  6  7  1  0
  7  8  2  0
  5  9  1  0
  5 10  2  0
  8 10  1  0
  7 11  1  0
  8 12  1  0
 12 13  1  0
 11 14  1  0
M  END
