
     RDKit          3D

 15 16  0  0  0  0  0  0  0  0999 V2000
  -16.4934   37.8736  -22.5094 O   0  0  0  0  0  0  0  0  0  0  0  0
  -17.3422   37.0857  -21.7022 P   0  0  0  0  0  0  0  0  0  0  0  0
  -17.6929   35.8211  -22.4745 O   0  0  0  0  0  0  0  0  0  0  0  0
  -16.8039   36.6267  -20.3776 O   0  0  0  0  0  0  0  0  0  0  0  0
  -18.6113   37.9897  -21.3920 O   0  0  0  0  0  0  0  0  0  0  0  0
  -18.7266   35.6707  -23.6463 C   0  0  0  0  0  0  0  0  0  0  0  0
  -18.0373   35.3368  -24.8033 C   0  0  0  0  0  0  0  0  0  0  0  0
  -17.7834   33.9575  -24.9745 O   0  0  0  0  0  0  0  0  0  0  0  0
  -16.6520   33.5400  -25.5944 C   0  0  0  0  0  0  0  0  0  0  0  0
  -16.5904   35.8957  -24.9118 O   0  0  0  0  0  0  0  0  0  0  0  0
  -15.8245   35.0836  -25.6614 C   0  0  0  0  0  0  0  0  0  0  0  0
  -16.5873   32.7438  -26.6243 C   0  0  0  0  0  0  0  0  0  0  0  0
  -15.9580   35.2846  -27.1075 O   0  0  0  0  0  0  0  0  0  0  0  0
  -16.7018   34.2965  -27.8036 C   0  0  0  0  0  0  0  0  0  0  0  0
  -17.5734   31.8927  -26.8672 O   0  0  0  0  0  0  0  0  0  0  0  0
  1  2  2  0
  2  3  1  0
  2  4  1  0
  2  5  1  0
  3  6  1  0
  6  7  1  0
  7  8  1  0
  8  9  1  0
  7 10  1  0
  9 11  1  0
 10 11  1  0
  9 12  1  0
 11 13  1  0
 12 14  1  0
 13 14  1  0
 12 15  1  0
M  END
