
     RDKit          3D

 15 15  0  0  0  0  0  0  0  0999 V2000
  -14.9034   28.1500  -22.8611 O   0  0  0  0  0  0  0  0  0  0  0  0
  -15.7405   28.7437  -22.1231 C   0  0  0  0  0  0  0  0  0  0  0  0
  -15.9159   30.0829  -22.2993 N   0  0  0  0  0  0  0  0  0  0  0  0
  -16.7656   30.6212  -23.1829 C   0  0  0  0  0  0  0  0  0  0  0  0
  -16.4093   31.7068  -23.9455 C   0  0  0  0  0  0  0  0  0  0  0  0
  -18.1711   30.8718  -22.8630 C   0  0  0  0  0  0  0  0  0  0  0  0
  -18.6151   31.8931  -23.5655 C   0  0  0  0  0  0  0  0  0  0  0  0
  -17.4761   32.3912  -24.3605 N   0  0  0  0  0  0  0  0  0  0  0  0
  -16.1966   28.0680  -21.0142 N   0  0  0  0  0  0  0  0  0  0  0  0
  -17.4632   33.7248  -24.9627 C   0  0  0  0  0  0  0  0  0  0  0  0
  -15.3625   31.5331  -24.7806 O   0  0  0  0  0  0  0  0  0  0  0  0
  -16.9693   33.5549  -26.2981 C   0  0  0  0  0  0  0  0  0  0  0  0
  -16.4057   34.8145  -26.9443 C   0  0  0  0  0  0  0  0  0  0  0  0
  -16.1288   34.6889  -28.2500 O   0  0  0  0  0  0  0  0  0  0  0  0
  -16.3977   35.8611  -26.4763 O   0  0  0  0  0  0  0  0  0  0  0  0
  1  2  2  0
  2  3  1  0
  3  4  1  0
  4  5  1  0
  4  6  1  0
  6  7  2  0
  5  8  1  0
  7  8  1  0
  2  9  1  0
  8 10  1  0
  5 11  2  0
 10 12  1  0
 12 13  1  0
 13 14  2  0
 13 15  1  0
M  END
