
     RDKit          3D

 15 15  0  0  0  0  0  0  0  0999 V2000
  -14.9034   28.1500  -22.8611 O   0  0  0  0  0  0  0  0  0  0  0  0
  -15.7405   28.7437  -22.1231 C   0  0  0  0  0  0  0  0  0  0  0  0
  -15.9159   30.0829  -22.2993 N   0  0  0  0  0  0  0  0  0  0  0  0
  -16.7656   30.6212  -23.1829 C   0  0  0  0  0  0  0  0  0  0  0  0
  -16.4093   31.7068  -23.9455 C   0  0  0  0  0  0  0  0  0  0  0  0
  -18.1711   30.8718  -22.8630 C   0  0  0  0  0  0  0  0  0  0  0  0
  -16.5747   28.0374  -21.3466 N   0  0  0  0  0  0  0  0  0  0  0  0
  -15.2831   31.6650  -24.7691 O   0  0  0  0  0  0  0  0  0  0  0  0
  -17.5530   32.3753  -24.5695 C   0  0  0  0  0  0  0  0  0  0  0  0
  -17.4580   33.8013  -24.8213 N   0  0  0  0  0  0  0  0  0  0  0  0
  -18.6373   31.9496  -23.5871 C   0  0  0  0  0  0  0  0  0  0  0  0
  -16.8806   34.3324  -25.9571 C   0  0  0  0  0  0  0  0  0  0  0  0
  -16.6770   33.8517  -27.0782 C   0  0  0  0  0  0  0  0  0  0  0  0
  -17.0779   35.7094  -25.9171 O   0  0  0  0  0  0  0  0  0  0  0  0
  -16.2191   34.5924  -28.1705 C   0  0  0  0  0  0  0  0  0  0  0  0
  1  2  2  0
  2  3  1  0
  3  4  1  0
  4  5  1  0
  4  6  1  0
  2  7  1  0
  5  8  1  0
  5  9  1  0
  9 10  1  0
  6 11  1  0
  9 11  1  0
 10 12  1  0
 12 13  1  0
 12 14  2  0
 13 15  1  0
M  END
