
     RDKit          3D

 15 15  0  0  0  0  0  0  0  0999 V2000
  -14.6860   27.7936  -22.6707 O   0  0  0  0  0  0  0  0  0  0  0  0
  -15.3867   28.7830  -22.2455 C   0  0  0  0  0  0  0  0  0  0  0  0
  -16.4680   28.5107  -21.5986 N   0  0  0  0  0  0  0  0  0  0  0  0
  -15.0251   30.0799  -22.5228 N   0  0  0  0  0  0  0  0  0  0  0  0
  -14.4857   30.6773  -23.4790 C   0  0  0  0  0  0  0  0  0  0  0  0
  -15.4007   31.6046  -24.1810 C   0  0  0  0  0  0  0  0  0  0  0  0
  -14.8284   32.8007  -24.6232 C   0  0  0  0  0  0  0  0  0  0  0  0
  -16.8156   31.5497  -24.1653 C   0  0  0  0  0  0  0  0  0  0  0  0
  -15.5678   33.8771  -25.1058 C   0  0  0  0  0  0  0  0  0  0  0  0
  -16.9883   33.6640  -25.2296 C   0  0  0  0  0  0  0  0  0  0  0  0
  -17.5656   32.5142  -24.7285 C   0  0  0  0  0  0  0  0  0  0  0  0
  -17.7384   34.7861  -25.7576 C   0  0  0  0  0  0  0  0  0  0  0  0
  -17.5451   34.9831  -27.0807 F   0  0  0  0  0  0  0  0  0  0  0  0
  -17.4946   36.0030  -25.2092 F   0  0  0  0  0  0  0  0  0  0  0  0
  -19.1566   34.5243  -25.5338 F   0  0  0  0  0  0  0  0  0  0  0  0
  1  2  2  0
  2  3  1  0
  2  4  1  0
  4  5  1  0
  5  6  1  0
  6  7  2  0
  6  8  1  0
  7  9  1  0
  9 10  2  0
  8 11  2  0
 10 11  1  0
 10 12  1  0
 12 13  1  0
 12 14  1  0
 12 15  1  0
M  END
