
     RDKit          3D

 16 16  0  0  0  0  0  0  0  0999 V2000
  -14.5169   27.6502  -22.7320 O   0  0  0  0  0  0  0  0  0  0  0  0
  -15.3895   28.5159  -22.1766 C   0  0  0  0  0  0  0  0  0  0  0  0
  -16.3575   28.0329  -21.6026 O   0  0  0  0  0  0  0  0  0  0  0  0
  -15.1670   29.8930  -22.2549 N   0  0  0  0  0  0  0  0  0  0  0  0
  -14.8446   30.6295  -23.2869 C   0  0  0  0  0  0  0  0  0  0  0  0
  -15.9885   31.4761  -23.7981 C   0  0  0  0  0  0  0  0  0  0  0  0
  -15.7201   32.4670  -24.7766 N   0  0  0  0  0  0  0  0  0  0  0  0
  -16.7559   33.2165  -25.2536 C   0  0  0  0  0  0  0  0  0  0  0  0
  -16.4457   34.2781  -26.2322 C   0  0  0  0  0  0  0  0  0  0  0  0
  -17.3635   31.1506  -23.6013 C   0  0  0  0  0  0  0  0  0  0  0  0
  -16.5001   34.0023  -27.5922 C   0  0  0  0  0  0  0  0  0  0  0  0
  -16.9735   32.6996  -28.0225 C   0  0  0  0  0  0  0  0  0  0  0  0
  -16.1309   35.0258  -28.4366 C   0  0  0  0  0  0  0  0  0  0  0  0
  -17.6763   30.0980  -22.6258 O   0  0  0  0  0  0  0  0  0  0  0  0
  -18.0167   32.9412  -24.8167 C   0  0  0  0  0  0  0  0  0  0  0  0
  -18.2919   31.9340  -23.9333 C   0  0  0  0  0  0  0  0  0  0  0  0
  1  2  2  0
  2  3  1  0
  2  4  1  0
  4  5  1  0
  5  6  1  0
  6  7  2  0
  7  8  1  0
  8  9  1  0
  6 10  1  0
  9 11  2  3
 11 12  1  0
 11 13  1  0
 10 14  1  0
  8 15  2  0
 10 16  2  0
 15 16  1  0
M  END
