
     RDKit          3D

 17 18  0  0  0  0  0  0  0  0999 V2000
  -14.9034   28.1500  -22.8611 O   0  0  0  0  0  0  0  0  0  0  0  0
  -15.7405   28.7437  -22.1231 C   0  0  0  0  0  0  0  0  0  0  0  0
  -15.9159   30.0829  -22.2993 N   0  0  0  0  0  0  0  0  0  0  0  0
  -16.7656   30.6212  -23.1829 C   0  0  0  0  0  0  0  0  0  0  0  0
  -16.4093   31.7068  -23.9455 C   0  0  0  0  0  0  0  0  0  0  0  0
  -18.1711   30.8718  -22.8630 C   0  0  0  0  0  0  0  0  0  0  0  0
  -18.6151   31.8931  -23.5655 C   0  0  0  0  0  0  0  0  0  0  0  0
  -16.1804   28.1139  -20.9609 N   0  0  0  0  0  0  0  0  0  0  0  0
  -17.4821   32.3866  -24.3606 N   0  0  0  0  0  0  0  0  0  0  0  0
  -17.5573   33.3565  -25.5047 C   0  0  0  0  0  0  0  0  0  0  0  0
  -16.9349   34.5466  -25.2068 C   0  0  0  0  0  0  0  0  0  0  0  0
  -19.0172   33.7893  -25.6518 O   0  0  0  0  0  0  0  0  0  0  0  0
  -17.6497   35.6504  -25.6217 C   0  0  0  0  0  0  0  0  0  0  0  0
  -17.7172   36.7673  -25.1584 O   0  0  0  0  0  0  0  0  0  0  0  0
  -15.4408   34.5417  -25.4153 O   0  0  0  0  0  0  0  0  0  0  0  0
  -19.0466   35.0457  -25.7189 C   0  0  0  0  0  0  0  0  0  0  0  0
  -19.7551   35.3988  -27.0338 O   0  0  0  0  0  0  0  0  0  0  0  0
  1  2  2  0
  2  3  1  0
  3  4  1  0
  4  5  1  0
  4  6  1  0
  6  7  2  0
  2  8  1  0
  5  9  1  0
  7  9  1  0
  9 10  1  0
 10 11  1  0
 10 12  1  0
 11 13  1  0
 13 14  1  0
 11 15  1  0
 12 16  1  0
 13 16  1  0
 16 17  1  0
M  END
