
     RDKit          3D

 17 17  0  0  0  0  0  0  0  0999 V2000
  -15.3258   28.6878  -22.4321 C   0  0  0  0  0  0  0  0  0  0  0  0
  -16.0045   29.6735  -22.4598 C   0  0  0  0  0  0  0  0  0  0  0  0
  -15.7347   30.6683  -23.3117 N   0  0  0  0  0  0  0  0  0  0  0  0
  -16.6527   31.6935  -23.7346 C   0  0  0  0  0  0  0  0  0  0  0  0
  -14.3128   28.4806  -23.1508 O   0  0  0  0  0  0  0  0  0  0  0  0
  -15.5455   27.7623  -21.4479 O   0  0  0  0  0  0  0  0  0  0  0  0
  -18.0059   31.5927  -23.5625 C   0  0  0  0  0  0  0  0  0  0  0  0
  -16.1363   32.7462  -24.6186 C   0  0  0  0  0  0  0  0  0  0  0  0
  -18.7220   32.6076  -24.1219 C   0  0  0  0  0  0  0  0  0  0  0  0
  -20.2558   32.5180  -23.7649 O   0  0  0  0  0  0  0  0  0  0  0  0
  -18.3900   33.5205  -24.8375 C   0  0  0  0  0  0  0  0  0  0  0  0
  -16.9773   33.6925  -25.0894 C   0  0  0  0  0  0  0  0  0  0  0  0
  -16.3312   34.8673  -25.8513 C   0  0  0  0  0  0  0  0  0  0  0  0
  -18.5270   30.6943  -22.6795 O   0  0  0  0  0  0  0  0  0  0  0  0
  -15.5275   35.4869  -25.2900 O   0  0  0  0  0  0  0  0  0  0  0  0
  -16.6746   34.9847  -27.1768 O   0  0  0  0  0  0  0  0  0  0  0  0
  -16.0189   35.7656  -27.8861 C   0  0  0  0  0  0  0  0  0  0  0  0
  1  2  1  0
  2  3  1  0
  3  4  1  0
  1  5  2  0
  1  6  1  0
  4  7  2  0
  4  8  1  0
  7  9  1  0
  9 10  1  0
  9 11  2  0
  8 12  2  0
 11 12  1  0
 12 13  1  0
  7 14  1  0
 13 15  2  0
 13 16  1  0
 16 17  1  0
M  END
