
     RDKit          3D

 11 10  0  0  0  0  0  0  0  0999 V2000
  -16.4706   36.7335  -21.3453 O   0  0  0  0  0  0  0  0  0  0  0  0
  -17.8476   36.5063  -20.7977 P   0  0  0  0  0  0  0  0  0  0  0  0
  -17.8342   35.8833  -19.5089 O   0  0  0  0  0  0  0  0  0  0  0  0
  -18.6726   35.4838  -21.8086 O   0  0  0  0  0  0  0  0  0  0  0  0
  -18.6709   37.8083  -20.8916 O   0  0  0  0  0  0  0  0  0  0  0  0
  -19.5121   34.3028  -21.5443 P   0  0  0  0  0  0  0  0  0  0  0  0
  -19.3718   33.8153  -20.2552 O   0  0  0  0  0  0  0  0  0  0  0  0
  -19.1874   33.0245  -22.3906 O   0  0  0  0  0  0  0  0  0  0  0  0
  -20.9432   34.6332  -21.8141 O   0  0  0  0  0  0  0  0  0  0  0  0
  -18.4914   32.0184  -22.5409 C   0  0  0  0  0  0  0  0  0  0  0  0
  -18.9872   30.8194  -22.6912 C   0  0  0  0  0  0  0  0  0  0  0  0
  1  2  2  0
  2  3  1  0
  2  4  1  0
  2  5  1  0
  4  6  1  0
  6  7  1  0
  6  8  1  0
  6  9  2  0
  8 10  1  0
 10 11  2  0
M  END
