
     RDKit          3D

 18 18  0  0  0  0  0  0  0  0999 V2000
  -14.0649   27.5428  -22.6008 O   0  0  0  0  0  0  0  0  0  0  0  0
  -15.3394   28.1061  -22.3453 C   0  0  0  0  0  0  0  0  0  0  0  0
  -15.4870   29.4438  -22.5018 N   0  0  0  0  0  0  0  0  0  0  0  0
  -16.8245   29.9142  -22.3938 C   0  0  0  0  0  0  0  0  0  0  0  0
  -16.8718   31.2611  -22.9813 C   0  0  0  0  0  0  0  0  0  0  0  0
  -18.0771   31.9634  -22.8951 C   0  0  0  0  0  0  0  0  0  0  0  0
  -15.8883   31.6238  -23.9461 C   0  0  0  0  0  0  0  0  0  0  0  0
  -19.0821   31.4769  -21.9969 O   0  0  0  0  0  0  0  0  0  0  0  0
  -18.2923   33.1425  -23.4658 C   0  0  0  0  0  0  0  0  0  0  0  0
  -16.0430   32.7690  -24.6288 C   0  0  0  0  0  0  0  0  0  0  0  0
  -19.5142   33.9220  -23.3140 O   0  0  0  0  0  0  0  0  0  0  0  0
  -17.2836   33.6050  -24.4178 C   0  0  0  0  0  0  0  0  0  0  0  0
  -17.4650   34.8860  -25.1665 C   0  0  0  0  0  0  0  0  0  0  0  0
  -16.6982   35.8465  -24.8140 O   0  0  0  0  0  0  0  0  0  0  0  0
  -17.1036   34.5995  -26.6745 C   0  0  0  0  0  0  0  0  0  0  0  0
  -17.5385   33.2952  -27.2379 C   0  0  0  0  0  0  0  0  0  0  0  0
  -15.7329   34.6617  -27.0943 N   0  0  0  0  0  0  0  0  0  0  0  0
  -18.8334   32.7434  -26.7765 C   0  0  0  0  0  0  0  0  0  0  0  0
  1  2  2  0
  2  3  1  0
  3  4  1  0
  4  5  1  0
  5  6  1  0
  5  7  2  0
  6  8  1  0
  6  9  2  0
  7 10  1  0
  9 11  1  0
  9 12  1  0
 10 12  2  0
 12 13  1  0
 13 14  1  0
 13 15  1  0
 15 16  1  0
 15 17  1  0
 16 18  1  0
M  END
