
     RDKit          3D

 18 19  0  0  0  0  0  0  0  0999 V2000
  -15.0680   28.3507  -22.8096 O   0  0  0  0  0  0  0  0  0  0  0  0
  -15.5574   28.4501  -21.7140 C   0  0  0  0  0  0  0  0  0  0  0  0
  -15.8884   27.6010  -21.1044 O   0  0  0  0  0  0  0  0  0  0  0  0
  -15.8122   29.8799  -21.4693 N   0  0  0  0  0  0  0  0  0  0  0  0
  -16.6863   30.6162  -22.2285 C   0  0  0  0  0  0  0  0  0  0  0  0
  -18.0103   30.6741  -21.8903 C   0  0  0  0  0  0  0  0  0  0  0  0
  -18.8050   31.4250  -22.6818 C   0  0  0  0  0  0  0  0  0  0  0  0
  -18.1141   32.0574  -23.7331 C   0  0  0  0  0  0  0  0  0  0  0  0
  -16.1016   31.1254  -23.3087 C   0  0  0  0  0  0  0  0  0  0  0  0
  -16.8828   31.8705  -24.1436 C   0  0  0  0  0  0  0  0  0  0  0  0
  -16.2333   32.5081  -25.4013 C   0  0  0  0  0  0  0  0  0  0  0  0
  -16.7273   32.1852  -26.5773 C   0  0  0  0  0  0  0  0  0  0  0  0
  -16.1526   34.0044  -25.1005 C   0  0  0  0  0  0  0  0  0  0  0  0
  -16.3832   33.2017  -27.5847 C   0  0  0  0  0  0  0  0  0  0  0  0
  -16.6417   34.5591  -26.7669 C   0  0  0  0  0  0  0  0  0  0  0  0
  -15.6014   34.6341  -24.3393 O   0  0  0  0  0  0  0  0  0  0  0  0
  -18.0662   34.9239  -26.5191 C   0  0  0  0  0  0  0  0  0  0  0  0
  -16.1652   35.7551  -26.9009 C   0  0  0  0  0  0  0  0  0  0  0  0
  1  2  1  0
  2  3  2  0
  2  4  1  0
  4  5  1  0
  5  6  1  0
  6  7  2  0
  7  8  1  0
  5  9  2  0
  8 10  2  0
  9 10  1  0
 10 11  1  0
 11 12  1  0
 11 13  1  0
 12 14  1  0
 13 15  1  0
 14 15  1  0
 13 16  2  0
 15 17  1  0
 15 18  1  0
M  END
