
     RDKit          3D

 18 18  0  0  0  0  0  0  0  0999 V2000
  -17.1256   36.2981  -19.6745 O   0  0  0  0  0  0  0  0  0  0  0  0
  -17.6138   36.6248  -20.8820 P   0  0  0  0  0  0  0  0  0  0  0  0
  -16.8532   37.5943  -21.6282 O   0  0  0  0  0  0  0  0  0  0  0  0
  -19.1227   36.9577  -20.8601 O   0  0  0  0  0  0  0  0  0  0  0  0
  -17.6451   35.2891  -21.7858 O   0  0  0  0  0  0  0  0  0  0  0  0
  -17.5730   35.3069  -23.2926 P   0  0  0  0  0  0  0  0  0  0  0  0
  -16.2180   35.1746  -23.6603 O   0  0  0  0  0  0  0  0  0  0  0  0
  -18.2433   36.4485  -23.9027 O   0  0  0  0  0  0  0  0  0  0  0  0
  -18.3907   34.0221  -23.6933 O   0  0  0  0  0  0  0  0  0  0  0  0
  -17.7579   32.7470  -24.0637 C   0  0  0  0  0  0  0  0  0  0  0  0
  -15.7234   34.3090  -24.8157 C   0  0  0  0  0  0  0  0  0  0  0  0
  -18.6495   31.7300  -24.1701 C   0  0  0  0  0  0  0  0  0  0  0  0
  -16.5193   32.9287  -24.8538 C   0  0  0  0  0  0  0  0  0  0  0  0
  -15.6018   31.9524  -24.5225 O   0  0  0  0  0  0  0  0  0  0  0  0
  -18.4596   30.7935  -23.0295 C   0  0  0  0  0  0  0  0  0  0  0  0
  -19.4467   30.5879  -22.2936 O   0  0  0  0  0  0  0  0  0  0  0  0
  -18.8395   31.2760  -25.3810 O   0  0  0  0  0  0  0  0  0  0  0  0
  -17.4642   30.0473  -22.9166 O   0  0  0  0  0  0  0  0  0  0  0  0
  1  2  1  0
  2  3  2  0
  2  4  1  0
  2  5  1  0
  5  6  1  0
  6  7  1  0
  6  8  2  0
  6  9  1  0
  9 10  1  0
  7 11  1  0
 10 12  1  0
 10 13  1  0
 11 13  1  0
 13 14  1  0
 12 15  1  0
 15 16  2  0
 12 17  1  0
 15 18  1  0
M  END
