
     RDKit          3D

 19 18  0  0  0  0  0  0  0  0999 V2000
  -16.4396   36.5694  -20.4768 O   0  0  0  0  0  0  0  0  0  0  0  0
  -17.3824   36.7453  -21.4273 P   0  0  0  0  0  0  0  0  0  0  0  0
  -18.7203   36.7194  -20.9710 O   0  0  0  0  0  0  0  0  0  0  0  0
  -17.2499   35.3265  -22.2667 O   0  0  0  0  0  0  0  0  0  0  0  0
  -17.1203   35.3146  -23.8332 P   0  0  0  0  0  0  0  0  0  0  0  0
  -17.1767   37.8971  -22.2574 O   0  0  0  0  0  0  0  0  0  0  0  0
  -15.7182   34.9945  -24.0897 O   0  0  0  0  0  0  0  0  0  0  0  0
  -18.0176   33.8892  -23.9074 O   0  0  0  0  0  0  0  0  0  0  0  0
  -17.5780   32.7716  -24.6627 C   0  0  0  0  0  0  0  0  0  0  0  0
  -17.8082   36.2900  -24.6330 O   0  0  0  0  0  0  0  0  0  0  0  0
  -18.2607   32.5423  -25.8834 C   0  0  0  0  0  0  0  0  0  0  0  0
  -17.6961   33.2287  -26.9236 C   0  0  0  0  0  0  0  0  0  0  0  0
  -17.2136   31.5192  -23.8336 C   0  0  0  0  0  0  0  0  0  0  0  0
  -16.5214   32.8896  -27.4135 C   0  0  0  0  0  0  0  0  0  0  0  0
  -18.0394   31.3038  -22.8137 C   0  0  0  0  0  0  0  0  0  0  0  0
  -15.9618   31.0363  -23.7713 O   0  0  0  0  0  0  0  0  0  0  0  0
  -19.3187   31.2684  -22.9332 O   0  0  0  0  0  0  0  0  0  0  0  0
  -17.6439   30.5992  -21.7727 O   0  0  0  0  0  0  0  0  0  0  0  0
  -15.9128   33.8327  -28.3267 C   0  0  0  0  0  0  0  0  0  0  0  0
  1  2  1  0
  2  3  1  0
  2  4  1  0
  4  5  1  0
  2  6  2  0
  5  7  1  0
  5  8  1  0
  8  9  1  0
  5 10  2  0
  9 11  1  0
 11 12  1  0
  9 13  1  0
 12 14  1  0
 13 15  1  0
 13 16  2  0
 15 17  2  0
 15 18  1  0
 14 19  1  0
M  END
