
     RDKit          3D

 19 20  0  0  0  0  0  0  0  0999 V2000
  -14.5169   27.6502  -22.7320 O   0  0  0  0  0  0  0  0  0  0  0  0
  -15.3895   28.5159  -22.1766 C   0  0  0  0  0  0  0  0  0  0  0  0
  -16.3575   28.0329  -21.6026 O   0  0  0  0  0  0  0  0  0  0  0  0
  -15.3093   29.9141  -22.4506 C   0  0  0  0  0  0  0  0  0  0  0  0
  -14.9298   30.4754  -23.5760 C   0  0  0  0  0  0  0  0  0  0  0  0
  -15.5190   31.7279  -23.9662 C   0  0  0  0  0  0  0  0  0  0  0  0
  -14.9621   32.5564  -24.8407 O   0  0  0  0  0  0  0  0  0  0  0  0
  -16.8699   31.8790  -23.9329 N   0  0  0  0  0  0  0  0  0  0  0  0
  -17.6674   30.9340  -23.2363 C   0  0  0  0  0  0  0  0  0  0  0  0
  -17.5661   32.8263  -24.7905 C   0  0  0  0  0  0  0  0  0  0  0  0
  -18.9388   32.8926  -24.4489 O   0  0  0  0  0  0  0  0  0  0  0  0
  -17.5485   32.5389  -26.2712 C   0  0  0  0  0  0  0  0  0  0  0  0
  -16.8429   30.0339  -22.3143 C   0  0  0  0  0  0  0  0  0  0  0  0
  -19.3971   33.9984  -25.1491 C   0  0  0  0  0  0  0  0  0  0  0  0
  -16.3590   32.8542  -26.9463 O   0  0  0  0  0  0  0  0  0  0  0  0
  -16.4407   34.3363  -27.3104 C   0  0  0  0  0  0  0  0  0  0  0  0
  -18.7078   33.2948  -26.7650 C   0  0  0  0  0  0  0  0  0  0  0  0
  -18.8890   35.3297  -25.0709 C   0  0  0  0  0  0  0  0  0  0  0  0
  -19.4011   35.9085  -24.0409 O   0  0  0  0  0  0  0  0  0  0  0  0
  1  2  2  0
  2  3  1  0
  2  4  1  0
  4  5  1  0
  5  6  1  0
  6  7  2  0
  6  8  1  0
  8  9  1  0
  8 10  1  0
 10 11  1  0
 10 12  1  0
  4 13  1  0
  9 13  2  0
 11 14  1  0
 12 15  1  0
 15 16  1  0
 12 17  1  0
 14 17  1  0
 14 18  1  0
 18 19  1  0
M  END
