
     RDKit          3D

 19 18  0  0  0  0  0  0  0  0999 V2000
  -16.8221   37.5404  -21.1161 O   0  0  0  0  0  0  0  0  0  0  0  0
  -17.5689   36.3562  -20.8245 P   0  0  0  0  0  0  0  0  0  0  0  0
  -17.5565   35.5596  -22.1658 O   0  0  0  0  0  0  0  0  0  0  0  0
  -16.9368   35.6266  -19.6787 O   0  0  0  0  0  0  0  0  0  0  0  0
  -17.0017   35.9076  -23.5549 P   0  0  0  0  0  0  0  0  0  0  0  0
  -17.7709   36.9638  -24.0230 O   0  0  0  0  0  0  0  0  0  0  0  0
  -15.5734   36.1656  -23.3927 O   0  0  0  0  0  0  0  0  0  0  0  0
  -17.3590   34.6644  -24.4006 O   0  0  0  0  0  0  0  0  0  0  0  0
  -16.2652   33.7907  -25.1105 C   0  0  0  0  0  0  0  0  0  0  0  0
  -16.8247   32.7414  -25.9546 C   0  0  0  0  0  0  0  0  0  0  0  0
  -17.6370   33.4432  -26.9320 C   0  0  0  0  0  0  0  0  0  0  0  0
  -17.7756   31.9115  -25.1335 O   0  0  0  0  0  0  0  0  0  0  0  0
  -17.2700   31.5238  -23.8827 C   0  0  0  0  0  0  0  0  0  0  0  0
  -19.0751   36.6332  -20.5199 O   0  0  0  0  0  0  0  0  0  0  0  0
  -16.7503   33.9432  -27.9977 C   0  0  0  0  0  0  0  0  0  0  0  0
  -18.3266   30.7406  -23.0995 C   0  0  0  0  0  0  0  0  0  0  0  0
  -16.1520   35.2059  -27.7793 O   0  0  0  0  0  0  0  0  0  0  0  0
  -19.4059   31.6044  -22.7707 O   0  0  0  0  0  0  0  0  0  0  0  0
  -18.5210   32.4166  -27.4908 O   0  0  0  0  0  0  0  0  0  0  0  0
  1  2  1  0
  2  3  1  0
  2  4  1  0
  3  5  1  0
  5  6  2  0
  5  7  1  0
  5  8  1  0
  8  9  1  0
  9 10  1  0
 10 11  1  0
 10 12  1  0
 12 13  1  0
  2 14  2  0
 11 15  1  0
 13 16  1  0
 15 17  1  0
 16 18  1  0
 11 19  1  0
M  END
