
     RDKit          3D

 19 20  0  0  0  0  0  0  0  0999 V2000
  -14.5169   27.6502  -22.7320 O   0  0  0  0  0  0  0  0  0  0  0  0
  -15.5210   28.4057  -22.2744 C   0  0  0  0  0  0  0  0  0  0  0  0
  -16.5409   27.8984  -21.8835 O   0  0  0  0  0  0  0  0  0  0  0  0
  -15.5028   29.8498  -22.5415 C   0  0  0  0  0  0  0  0  0  0  0  0
  -16.6301   30.4736  -23.2478 C   0  0  0  0  0  0  0  0  0  0  0  0
  -17.8867   30.2469  -22.7972 N   0  0  0  0  0  0  0  0  0  0  0  0
  -16.5030   31.5946  -23.9023 C   0  0  0  0  0  0  0  0  0  0  0  0
  -18.7920   31.0229  -23.4065 C   0  0  0  0  0  0  0  0  0  0  0  0
  -17.9338   31.9418  -24.1544 N   0  0  0  0  0  0  0  0  0  0  0  0
  -19.9866   30.8839  -23.5185 O   0  0  0  0  0  0  0  0  0  0  0  0
  -18.3990   33.0193  -25.1160 C   0  0  0  0  0  0  0  0  0  0  0  0
  -18.1341   34.2483  -24.6527 O   0  0  0  0  0  0  0  0  0  0  0  0
  -17.6683   35.1619  -25.5037 C   0  0  0  0  0  0  0  0  0  0  0  0
  -16.7503   35.9364  -24.8316 C   0  0  0  0  0  0  0  0  0  0  0  0
  -18.7342   35.9180  -26.1749 C   0  0  0  0  0  0  0  0  0  0  0  0
  -15.8508   35.3351  -24.0165 O   0  0  0  0  0  0  0  0  0  0  0  0
  -16.9157   34.4830  -26.7063 C   0  0  0  0  0  0  0  0  0  0  0  0
  -17.4112   32.8251  -26.4048 C   0  0  0  0  0  0  0  0  0  0  0  0
  -15.5104   34.3836  -26.7799 O   0  0  0  0  0  0  0  0  0  0  0  0
  1  2  2  0
  2  3  1  0
  2  4  1  0
  4  5  1  0
  5  6  1  0
  5  7  2  0
  6  8  1  0
  7  9  1  0
  8  9  1  0
  8 10  2  0
  9 11  1  0
 11 12  1  0
 12 13  1  0
 13 14  1  0
 13 15  1  0
 14 16  1  0
 13 17  1  0
 11 18  1  0
 17 18  1  0
 17 19  1  0
M  END
