
     RDKit          3D

 19 20  0  0  0  0  0  0  0  0999 V2000
  -16.5405   33.4176  -27.8652 C   0  0  0  0  0  0  0  0  0  0  0  0
  -16.3076   34.6636  -27.6884 C   0  0  0  0  0  0  0  0  0  0  0  0
  -16.6595   35.1555  -26.5340 C   0  0  0  0  0  0  0  0  0  0  0  0
  -16.4464   36.4463  -26.1158 O   0  0  0  0  0  0  0  0  0  0  0  0
  -17.6626   34.4039  -25.7365 C   0  0  0  0  0  0  0  0  0  0  0  0
  -18.3016   34.9522  -24.5437 C   0  0  0  0  0  0  0  0  0  0  0  0
  -17.8446   33.0956  -26.2226 C   0  0  0  0  0  0  0  0  0  0  0  0
  -18.7677   33.9565  -23.7448 N   0  0  0  0  0  0  0  0  0  0  0  0
  -19.3627   35.7982  -24.8552 O   0  0  0  0  0  0  0  0  0  0  0  0
  -18.8124   32.2896  -25.4447 C   0  0  0  0  0  0  0  0  0  0  0  0
  -19.2226   37.1041  -24.7712 C   0  0  0  0  0  0  0  0  0  0  0  0
  -17.3159   32.6098  -27.2889 C   0  0  0  0  0  0  0  0  0  0  0  0
  -19.0082   32.6385  -24.0974 C   0  0  0  0  0  0  0  0  0  0  0  0
  -18.4113   34.1324  -22.2740 C   0  0  0  0  0  0  0  0  0  0  0  0
  -19.9866   32.2091  -26.2825 C   0  0  0  0  0  0  0  0  0  0  0  0
  -19.3533   31.7126  -23.1796 O   0  0  0  0  0  0  0  0  0  0  0  0
  -18.4537   35.4352  -21.8358 C   0  0  0  0  0  0  0  0  0  0  0  0
  -19.3883   36.1641  -21.6371 O   0  0  0  0  0  0  0  0  0  0  0  0
  -17.1554   35.9263  -21.4360 O   0  0  0  0  0  0  0  0  0  0  0  0
  1  2  2  0
  2  3  1  0
  3  4  1  0
  3  5  2  0
  5  6  1  0
  5  7  1  0
  6  8  1  0
  6  9  1  0
  7 10  1  0
  9 11  1  0
  1 12  1  0
  7 12  2  0
  8 13  1  0
 10 13  1  0
  8 14  1  0
 10 15  1  0
 13 16  2  0
 14 17  1  0
 17 18  2  0
 17 19  1  0
M  END
