
     RDKit          3D

 19 19  0  0  0  0  0  0  0  0999 V2000
  -14.5169   27.6502  -22.7320 O   0  0  0  0  0  0  0  0  0  0  0  0
  -15.5210   28.4057  -22.2744 C   0  0  0  0  0  0  0  0  0  0  0  0
  -16.5409   27.8984  -21.8835 O   0  0  0  0  0  0  0  0  0  0  0  0
  -15.5028   29.8498  -22.5415 C   0  0  0  0  0  0  0  0  0  0  0  0
  -16.6301   30.4736  -23.2478 C   0  0  0  0  0  0  0  0  0  0  0  0
  -17.8867   30.2469  -22.7972 N   0  0  0  0  0  0  0  0  0  0  0  0
  -16.3797   31.8885  -23.6155 C   0  0  0  0  0  0  0  0  0  0  0  0
  -15.3953   32.0259  -24.6035 O   0  0  0  0  0  0  0  0  0  0  0  0
  -17.7095   32.4314  -24.2379 C   0  0  0  0  0  0  0  0  0  0  0  0
  -17.7570   33.8406  -24.1786 O   0  0  0  0  0  0  0  0  0  0  0  0
  -16.7804   34.7414  -24.5798 P   0  0  0  0  0  0  0  0  0  0  0  0
  -17.3562   35.9132  -24.9682 O   0  0  0  0  0  0  0  0  0  0  0  0
  -16.3359   34.2299  -26.2043 O   0  0  0  0  0  0  0  0  0  0  0  0
  -15.4280   34.7240  -23.8394 O   0  0  0  0  0  0  0  0  0  0  0  0
  -18.6939   31.4623  -23.5062 C   0  0  0  0  0  0  0  0  0  0  0  0
  -16.9045   34.6768  -27.4270 C   0  0  0  0  0  0  0  0  0  0  0  0
  -17.6082   33.4304  -27.8335 C   0  0  0  0  0  0  0  0  0  0  0  0
  -16.8482   32.2014  -27.7047 C   0  0  0  0  0  0  0  0  0  0  0  0
  -15.5950   32.5682  -28.3328 O   0  0  0  0  0  0  0  0  0  0  0  0
  1  2  2  0
  2  3  1  0
  2  4  1  0
  4  5  1  0
  5  6  1  0
  5  7  1  0
  7  8  1  0
  7  9  1  0
  9 10  1  0
 10 11  1  0
 11 12  2  0
 11 13  1  0
 11 14  1  0
  6 15  1  0
  9 15  1  0
 13 16  1  0
 16 17  1  0
 17 18  1  0
 18 19  1  0
M  END
